/*---------------------------------------------------------------------------*\
| =========                 |                                                 |
| \\      /  F ield         | OpenFOAM: The Open Source CFD Toolbox           |
|  \\    /   O peration     | Version:  5.x                                   |
|   \\  /    A nd           | Web:      www.OpenFOAM.org                      |
|    \\/     M anipulation  |                                                 |
\*---------------------------------------------------------------------------*/
Build  : 5.x-197d9d3bf20a
Exec   : blockMesh
Date   : Apr 11 2018
Time   : 23:25:50
Host   : "lenovoYoga"
PID    : 28525
I/O    : uncollated
Case   : /home/jlobatop/Documents/Thesis/senior-thesis/diffusor-mesh
nProcs : 1
sigFpe : Enabling floating point exception trapping (FOAM_SIGFPE).
fileModificationChecking : Monitoring run-time modified files using timeStampMaster (fileModificationSkew 10)
allowSystemOperations : Allowing user-supplied system call operations

// * * * * * * * * * * * * * * * * * * * * * * * * * * * * * * * * * * * * * //
Create time

Deleting polyMesh directory
    "/home/jlobatop/Documents/Thesis/senior-thesis/diffusor-mesh/constant/polyMesh"
Creating block mesh from
    "/home/jlobatop/Documents/Thesis/senior-thesis/diffusor-mesh/system/blockMeshDict"
Creating block edges
No non-planar block faces defined
Creating topology blocks
Creating topology patches

Creating block mesh topology
--> FOAM Warning : 
    From function Foam::polyMesh::polyMesh(const Foam::IOobject&, const Foam::Xfer<Foam::Field<Foam::Vector<double> > >&, const cellShapeList&, const faceListList&, const wordList&, const Foam::PtrList<Foam::dictionary>&, const Foam::word&, const Foam::word&, bool)
    in file meshes/polyMesh/polyMeshFromShapeMesh.C at line 871
    Found 16 undefined faces in mesh; adding to default patch.

Check topology

	Basic statistics
		Number of internal faces : 9
		Number of boundary faces : 30
		Number of defined boundary faces : 30
		Number of undefined boundary faces : 0
	Checking patch -> block consistency

Creating block offsets
Creating merge list .

Creating polyMesh from blockMesh
Creating patches
Creating cells
Creating points with scale 1
    Block 0 cell size :
        i : 0.0509588 .. 0.00509588
        j : 0.00727273 .. 0.00727273
        k : 0.1 .. 0.1

    Block 1 cell size :
        i : 0.006 .. 0.006
        j : 0.00727273 .. 0.00727273
        k : 0.1 .. 0.1

    Block 2 cell size :
        i : 0.00445481 .. 0.0508278
        j : 0.00586099 .. 0.00586099
        k : 0.1 .. 0.1

    Block 3 cell size :
        i : 0.0509588 .. 0.00509588
        j : 0.00714286 .. 0.00714286
        k : 0.1 .. 0.1

    Block 4 cell size :
        i : 0.00579556 .. 0.00579556
        j : 0.00714286 .. 0.00714286
        k : 0.1 .. 0.1

    Block 5 cell size :
        i : 0.0509588 .. 0.00509588
        j : 0.00476867 .. 0.07153
        k : 0.1 .. 0.1

    Block 6 cell size :
        i : 0.00529556 .. 0.00529556
        j : 0.00476867 .. 0.07153
        k : 0.1 .. 0.1

    Block 7 cell size :
        i : 0.0131488 .. 0.131488
        j : 0.00476867 .. 0.07153
        k : 0.1 .. 0.1


There are no merge patch pairs edges

Writing polyMesh
----------------
Mesh Information
----------------
  boundingBox: (0 0 0) (3.57956 1.85 0.1)
  nPoints: 56176
  nCells: 27700
  nFaces: 111187
  nInternalFaces: 55013
----------------
Patches
----------------
  patch 0 (start: 55013 size: 117) name: inlet
  patch 1 (start: 55130 size: 40) name: outlet
  patch 2 (start: 55170 size: 70) name: compressor
  patch 3 (start: 55240 size: 220) name: upper
  patch 4 (start: 55460 size: 100) name: lower
  patch 5 (start: 55560 size: 77) name: cowl
  patch 6 (start: 55637 size: 150) name: axis
  patch 7 (start: 55787 size: 55400) name: defaultFaces

End

