/*---------------------------------------------------------------------------*\
| =========                 |                                                 |
| \\      /  F ield         | OpenFOAM: The Open Source CFD Toolbox           |
|  \\    /   O peration     | Version:  5.x                                   |
|   \\  /    A nd           | Web:      www.OpenFOAM.org                      |
|    \\/     M anipulation  |                                                 |
\*---------------------------------------------------------------------------*/
Build  : 5.x-197d9d3bf20a
Exec   : simpleFoam -case ./case
Date   : Mar 23 2018
Time   : 18:01:30
Host   : "lenovoYoga"
PID    : 22309
I/O    : uncollated
Case   : ./case
nProcs : 1
sigFpe : Enabling floating point exception trapping (FOAM_SIGFPE).
fileModificationChecking : Monitoring run-time modified files using timeStampMaster (fileModificationSkew 10)
allowSystemOperations : Allowing user-supplied system call operations

// * * * * * * * * * * * * * * * * * * * * * * * * * * * * * * * * * * * * * //
Create time

Create mesh for time = 0


SIMPLE: convergence criteria
    field p	 tolerance 0.01
    field U	 tolerance 0.001
    field "(k|epsilon|omega|f|v2)"	 tolerance 0.001

Reading field p

Reading field U

Reading/calculating face flux field phi

Selecting incompressible transport model Newtonian
Selecting turbulence model type RAS
Selecting RAS turbulence model kEpsilon
RAS
{
    RASModel        kEpsilon;
    turbulence      on;
    printCoeffs     on;
    Cmu             0.09;
    C1              1.44;
    C2              1.92;
    C3              0;
    sigmak          1;
    sigmaEps        1.3;
}

No MRF models present

No finite volume options present


Starting time loop

Time = 1

smoothSolver:  Solving for Ux, Initial residual = 1, Final residual = 0.000427789, No Iterations 1
smoothSolver:  Solving for Uy, Initial residual = 0, Final residual = 0, No Iterations 0
GAMG:  Solving for p, Initial residual = 1, Final residual = 0.0876317, No Iterations 5
time step continuity errors : sum local = 0.219628, global = -0.0987607, cumulative = -0.0987607
smoothSolver:  Solving for epsilon, Initial residual = 0.896859, Final residual = 0.047754, No Iterations 2
smoothSolver:  Solving for k, Initial residual = 1, Final residual = 0.0682253, No Iterations 2
ExecutionTime = 0.01 s  ClockTime = 0 s

Time = 2

smoothSolver:  Solving for Ux, Initial residual = 0.50051, Final residual = 0.0155252, No Iterations 1
smoothSolver:  Solving for Uy, Initial residual = 0.611574, Final residual = 0.0517532, No Iterations 1
GAMG:  Solving for p, Initial residual = 0.776096, Final residual = 0.0615422, No Iterations 2
time step continuity errors : sum local = 0.334085, global = 0.00638703, cumulative = -0.0923736
smoothSolver:  Solving for epsilon, Initial residual = 0.678138, Final residual = 0.0177915, No Iterations 2
smoothSolver:  Solving for k, Initial residual = 0.766633, Final residual = 0.0280003, No Iterations 2
ExecutionTime = 0.02 s  ClockTime = 0 s

Time = 3

smoothSolver:  Solving for Ux, Initial residual = 0.377951, Final residual = 0.0372748, No Iterations 1
smoothSolver:  Solving for Uy, Initial residual = 0.583021, Final residual = 0.0235792, No Iterations 2
GAMG:  Solving for p, Initial residual = 0.290829, Final residual = 0.0181606, No Iterations 2
time step continuity errors : sum local = 0.155059, global = 0.0120385, cumulative = -0.0803352
smoothSolver:  Solving for epsilon, Initial residual = 0.259643, Final residual = 0.00981323, No Iterations 2
bounding epsilon, min: -0.0730315 max: 33.5327 average: 4.22154
smoothSolver:  Solving for k, Initial residual = 0.269339, Final residual = 0.0180259, No Iterations 2
ExecutionTime = 0.03 s  ClockTime = 0 s

Time = 4

smoothSolver:  Solving for Ux, Initial residual = 0.231352, Final residual = 0.0103822, No Iterations 2
smoothSolver:  Solving for Uy, Initial residual = 0.391111, Final residual = 0.0250134, No Iterations 2
GAMG:  Solving for p, Initial residual = 0.183269, Final residual = 0.0154636, No Iterations 2
time step continuity errors : sum local = 0.141664, global = 0.0430406, cumulative = -0.0372946
smoothSolver:  Solving for epsilon, Initial residual = 0.126579, Final residual = 0.00628798, No Iterations 2
smoothSolver:  Solving for k, Initial residual = 0.18047, Final residual = 0.0111891, No Iterations 2
ExecutionTime = 0.03 s  ClockTime = 0 s

Time = 5

smoothSolver:  Solving for Ux, Initial residual = 0.174077, Final residual = 0.00998384, No Iterations 2
smoothSolver:  Solving for Uy, Initial residual = 0.282679, Final residual = 0.0180517, No Iterations 2
GAMG:  Solving for p, Initial residual = 0.116167, Final residual = 0.00851535, No Iterations 2
time step continuity errors : sum local = 0.0980643, global = 0.0338079, cumulative = -0.00348666
smoothSolver:  Solving for epsilon, Initial residual = 0.0693968, Final residual = 0.00316848, No Iterations 2
smoothSolver:  Solving for k, Initial residual = 0.110471, Final residual = 0.00697913, No Iterations 2
ExecutionTime = 0.03 s  ClockTime = 0 s

Time = 6

smoothSolver:  Solving for Ux, Initial residual = 0.145235, Final residual = 0.00730213, No Iterations 2
smoothSolver:  Solving for Uy, Initial residual = 0.21422, Final residual = 0.0123718, No Iterations 2
GAMG:  Solving for p, Initial residual = 0.0863268, Final residual = 0.00449961, No Iterations 2
time step continuity errors : sum local = 0.0705611, global = 0.0177598, cumulative = 0.0142732
smoothSolver:  Solving for epsilon, Initial residual = 0.0423211, Final residual = 0.00175822, No Iterations 2
smoothSolver:  Solving for k, Initial residual = 0.0780215, Final residual = 0.0043765, No Iterations 2
ExecutionTime = 0.03 s  ClockTime = 0 s

Time = 7

smoothSolver:  Solving for Ux, Initial residual = 0.110639, Final residual = 0.00525469, No Iterations 2
smoothSolver:  Solving for Uy, Initial residual = 0.180067, Final residual = 0.0115728, No Iterations 2
GAMG:  Solving for p, Initial residual = 0.0783036, Final residual = 0.00340449, No Iterations 2
time step continuity errors : sum local = 0.0607336, global = 0.00545651, cumulative = 0.0197297
smoothSolver:  Solving for epsilon, Initial residual = 0.0281068, Final residual = 0.00121498, No Iterations 2
smoothSolver:  Solving for k, Initial residual = 0.0600023, Final residual = 0.0034452, No Iterations 2
ExecutionTime = 0.04 s  ClockTime = 0 s

Time = 8

smoothSolver:  Solving for Ux, Initial residual = 0.0892971, Final residual = 0.00399163, No Iterations 2
smoothSolver:  Solving for Uy, Initial residual = 0.154296, Final residual = 0.0103679, No Iterations 2
GAMG:  Solving for p, Initial residual = 0.0715887, Final residual = 0.0031306, No Iterations 2
time step continuity errors : sum local = 0.0593195, global = -0.00710493, cumulative = 0.0126247
smoothSolver:  Solving for epsilon, Initial residual = 0.0248482, Final residual = 0.000863916, No Iterations 2
smoothSolver:  Solving for k, Initial residual = 0.0532178, Final residual = 0.00288711, No Iterations 2
ExecutionTime = 0.04 s  ClockTime = 0 s

Time = 9

smoothSolver:  Solving for Ux, Initial residual = 0.0759923, Final residual = 0.0036449, No Iterations 2
smoothSolver:  Solving for Uy, Initial residual = 0.128122, Final residual = 0.00858093, No Iterations 2
GAMG:  Solving for p, Initial residual = 0.0637981, Final residual = 0.0029946, No Iterations 2
time step continuity errors : sum local = 0.0612446, global = -0.0158564, cumulative = -0.00323163
smoothSolver:  Solving for epsilon, Initial residual = 0.0206722, Final residual = 0.000661743, No Iterations 2
smoothSolver:  Solving for k, Initial residual = 0.0446488, Final residual = 0.00226401, No Iterations 2
ExecutionTime = 0.04 s  ClockTime = 0 s

Time = 10

smoothSolver:  Solving for Ux, Initial residual = 0.0674037, Final residual = 0.00364562, No Iterations 2
smoothSolver:  Solving for Uy, Initial residual = 0.115446, Final residual = 0.00754193, No Iterations 2
GAMG:  Solving for p, Initial residual = 0.0671953, Final residual = 0.00294723, No Iterations 2
time step continuity errors : sum local = 0.0771904, global = -0.0202687, cumulative = -0.0235003
smoothSolver:  Solving for epsilon, Initial residual = 0.0185414, Final residual = 0.000599198, No Iterations 2
smoothSolver:  Solving for k, Initial residual = 0.0408472, Final residual = 0.00202799, No Iterations 2
ExecutionTime = 0.05 s  ClockTime = 0 s

Time = 11

smoothSolver:  Solving for Ux, Initial residual = 0.0587213, Final residual = 0.00352674, No Iterations 2
smoothSolver:  Solving for Uy, Initial residual = 0.108424, Final residual = 0.00679704, No Iterations 2
GAMG:  Solving for p, Initial residual = 0.0606239, Final residual = 0.00376393, No Iterations 2
time step continuity errors : sum local = 0.081235, global = -0.0170506, cumulative = -0.0405509
smoothSolver:  Solving for epsilon, Initial residual = 0.0166544, Final residual = 0.000523021, No Iterations 2
smoothSolver:  Solving for k, Initial residual = 0.0362037, Final residual = 0.00175053, No Iterations 2
ExecutionTime = 0.05 s  ClockTime = 0 s

Time = 12

smoothSolver:  Solving for Ux, Initial residual = 0.0508969, Final residual = 0.0030731, No Iterations 2
smoothSolver:  Solving for Uy, Initial residual = 0.100877, Final residual = 0.00546346, No Iterations 2
GAMG:  Solving for p, Initial residual = 0.0563056, Final residual = 0.00357529, No Iterations 2
time step continuity errors : sum local = 0.0730061, global = -0.0134537, cumulative = -0.0540046
smoothSolver:  Solving for epsilon, Initial residual = 0.0157267, Final residual = 0.0005566, No Iterations 2
smoothSolver:  Solving for k, Initial residual = 0.0350693, Final residual = 0.00161083, No Iterations 2
ExecutionTime = 0.05 s  ClockTime = 0 s

Time = 13

smoothSolver:  Solving for Ux, Initial residual = 0.04466, Final residual = 0.0024379, No Iterations 2
smoothSolver:  Solving for Uy, Initial residual = 0.0885546, Final residual = 0.00374056, No Iterations 2
GAMG:  Solving for p, Initial residual = 0.0597703, Final residual = 0.00268384, No Iterations 2
time step continuity errors : sum local = 0.0642026, global = -0.0105403, cumulative = -0.0645449
smoothSolver:  Solving for epsilon, Initial residual = 0.0152862, Final residual = 0.000534165, No Iterations 2
smoothSolver:  Solving for k, Initial residual = 0.0308319, Final residual = 0.00122495, No Iterations 2
ExecutionTime = 0.06 s  ClockTime = 0 s

Time = 14

smoothSolver:  Solving for Ux, Initial residual = 0.0412153, Final residual = 0.00222698, No Iterations 2
smoothSolver:  Solving for Uy, Initial residual = 0.0816424, Final residual = 0.0031941, No Iterations 2
GAMG:  Solving for p, Initial residual = 0.0590611, Final residual = 0.00356812, No Iterations 2
time step continuity errors : sum local = 0.073303, global = -0.00127683, cumulative = -0.0658217
smoothSolver:  Solving for epsilon, Initial residual = 0.0151158, Final residual = 0.000487497, No Iterations 2
smoothSolver:  Solving for k, Initial residual = 0.0288658, Final residual = 0.00115327, No Iterations 2
ExecutionTime = 0.06 s  ClockTime = 0 s

Time = 15

smoothSolver:  Solving for Ux, Initial residual = 0.0379551, Final residual = 0.0018182, No Iterations 2
smoothSolver:  Solving for Uy, Initial residual = 0.0785917, Final residual = 0.00340813, No Iterations 2
GAMG:  Solving for p, Initial residual = 0.0480925, Final residual = 0.00233105, No Iterations 2
time step continuity errors : sum local = 0.0460898, global = 0.00474474, cumulative = -0.061077
smoothSolver:  Solving for epsilon, Initial residual = 0.0137171, Final residual = 0.000463323, No Iterations 2
smoothSolver:  Solving for k, Initial residual = 0.0243929, Final residual = 0.000907678, No Iterations 2
ExecutionTime = 0.06 s  ClockTime = 0 s

Time = 16

smoothSolver:  Solving for Ux, Initial residual = 0.0356186, Final residual = 0.00174431, No Iterations 2
smoothSolver:  Solving for Uy, Initial residual = 0.0709762, Final residual = 0.00261061, No Iterations 2
GAMG:  Solving for p, Initial residual = 0.0436996, Final residual = 0.00232318, No Iterations 2
time step continuity errors : sum local = 0.0446192, global = 0.010904, cumulative = -0.050173
smoothSolver:  Solving for epsilon, Initial residual = 0.012028, Final residual = 0.000332623, No Iterations 2
smoothSolver:  Solving for k, Initial residual = 0.0198874, Final residual = 0.00068061, No Iterations 2
ExecutionTime = 0.06 s  ClockTime = 0 s

Time = 17

smoothSolver:  Solving for Ux, Initial residual = 0.0314057, Final residual = 0.00145501, No Iterations 2
smoothSolver:  Solving for Uy, Initial residual = 0.0666564, Final residual = 0.00282863, No Iterations 2
GAMG:  Solving for p, Initial residual = 0.0419036, Final residual = 0.00221842, No Iterations 2
time step continuity errors : sum local = 0.0438773, global = 0.0135014, cumulative = -0.0366716
smoothSolver:  Solving for epsilon, Initial residual = 0.0108843, Final residual = 0.000280559, No Iterations 2
smoothSolver:  Solving for k, Initial residual = 0.016989, Final residual = 0.000607801, No Iterations 2
ExecutionTime = 0.07 s  ClockTime = 0 s

Time = 18

smoothSolver:  Solving for Ux, Initial residual = 0.0277155, Final residual = 0.00121081, No Iterations 2
smoothSolver:  Solving for Uy, Initial residual = 0.0634121, Final residual = 0.00307076, No Iterations 2
GAMG:  Solving for p, Initial residual = 0.0413059, Final residual = 0.00207506, No Iterations 2
time step continuity errors : sum local = 0.0402937, global = 0.0135885, cumulative = -0.0230831
smoothSolver:  Solving for epsilon, Initial residual = 0.00976203, Final residual = 0.000255925, No Iterations 2
smoothSolver:  Solving for k, Initial residual = 0.0153623, Final residual = 0.000529971, No Iterations 2
ExecutionTime = 0.07 s  ClockTime = 0 s

Time = 19

smoothSolver:  Solving for Ux, Initial residual = 0.0235906, Final residual = 0.00103612, No Iterations 2
smoothSolver:  Solving for Uy, Initial residual = 0.0562877, Final residual = 0.00293009, No Iterations 2
GAMG:  Solving for p, Initial residual = 0.0355275, Final residual = 0.00157376, No Iterations 2
time step continuity errors : sum local = 0.0317011, global = 0.010759, cumulative = -0.0123241
smoothSolver:  Solving for epsilon, Initial residual = 0.00859469, Final residual = 0.000207927, No Iterations 2
smoothSolver:  Solving for k, Initial residual = 0.0140834, Final residual = 0.000466362, No Iterations 2
ExecutionTime = 0.07 s  ClockTime = 0 s

Time = 20

smoothSolver:  Solving for Ux, Initial residual = 0.0213385, Final residual = 0.000993688, No Iterations 2
smoothSolver:  Solving for Uy, Initial residual = 0.0489763, Final residual = 0.0026937, No Iterations 2
GAMG:  Solving for p, Initial residual = 0.0303486, Final residual = 0.00111964, No Iterations 2
time step continuity errors : sum local = 0.0231039, global = 0.00694212, cumulative = -0.00538198
smoothSolver:  Solving for epsilon, Initial residual = 0.0088453, Final residual = 0.000261404, No Iterations 2
smoothSolver:  Solving for k, Initial residual = 0.0141744, Final residual = 0.000488104, No Iterations 2
ExecutionTime = 0.08 s  ClockTime = 0 s

Time = 21

smoothSolver:  Solving for Ux, Initial residual = 0.0191372, Final residual = 0.00100676, No Iterations 2
smoothSolver:  Solving for Uy, Initial residual = 0.0423638, Final residual = 0.00204838, No Iterations 2
GAMG:  Solving for p, Initial residual = 0.0269016, Final residual = 0.000833401, No Iterations 2
time step continuity errors : sum local = 0.0176156, global = 0.00355628, cumulative = -0.00182571
smoothSolver:  Solving for epsilon, Initial residual = 0.00957421, Final residual = 0.000237247, No Iterations 2
bounding epsilon, min: -0.783743 max: 225.858 average: 9.0137
smoothSolver:  Solving for k, Initial residual = 0.0137041, Final residual = 0.000509191, No Iterations 2
ExecutionTime = 0.08 s  ClockTime = 0 s

Time = 22

smoothSolver:  Solving for Ux, Initial residual = 0.0175983, Final residual = 0.00100578, No Iterations 2
smoothSolver:  Solving for Uy, Initial residual = 0.0370722, Final residual = 0.00171366, No Iterations 2
GAMG:  Solving for p, Initial residual = 0.0250986, Final residual = 0.000790415, No Iterations 2
time step continuity errors : sum local = 0.0167692, global = 0.000371821, cumulative = -0.00145389
smoothSolver:  Solving for epsilon, Initial residual = 0.00893627, Final residual = 0.000256073, No Iterations 2
bounding epsilon, min: -1.77726 max: 217.542 average: 9.1402
smoothSolver:  Solving for k, Initial residual = 0.0132511, Final residual = 0.000450898, No Iterations 2
ExecutionTime = 0.08 s  ClockTime = 0 s

Time = 23

smoothSolver:  Solving for Ux, Initial residual = 0.0166092, Final residual = 0.000917481, No Iterations 2
smoothSolver:  Solving for Uy, Initial residual = 0.034568, Final residual = 0.0014612, No Iterations 2
GAMG:  Solving for p, Initial residual = 0.0235467, Final residual = 0.000788138, No Iterations 2
time step continuity errors : sum local = 0.0166703, global = -0.00334429, cumulative = -0.00479817
smoothSolver:  Solving for epsilon, Initial residual = 0.00980958, Final residual = 0.000216737, No Iterations 2
bounding epsilon, min: -3.0147 max: 216.727 average: 9.48146
smoothSolver:  Solving for k, Initial residual = 0.0129403, Final residual = 0.000468171, No Iterations 2
ExecutionTime = 0.09 s  ClockTime = 0 s

Time = 24

smoothSolver:  Solving for Ux, Initial residual = 0.0158251, Final residual = 0.000759349, No Iterations 2
smoothSolver:  Solving for Uy, Initial residual = 0.0321874, Final residual = 0.00131348, No Iterations 2
GAMG:  Solving for p, Initial residual = 0.0223584, Final residual = 0.00076179, No Iterations 2
time step continuity errors : sum local = 0.0160338, global = -0.00515288, cumulative = -0.00995105
smoothSolver:  Solving for epsilon, Initial residual = 0.00921653, Final residual = 0.000237193, No Iterations 2
bounding epsilon, min: -1.95945 max: 231.487 average: 9.92784
smoothSolver:  Solving for k, Initial residual = 0.0120688, Final residual = 0.000472285, No Iterations 2
ExecutionTime = 0.09 s  ClockTime = 0 s

Time = 25

smoothSolver:  Solving for Ux, Initial residual = 0.0151528, Final residual = 0.000648229, No Iterations 2
smoothSolver:  Solving for Uy, Initial residual = 0.0293216, Final residual = 0.00120512, No Iterations 2
GAMG:  Solving for p, Initial residual = 0.0214086, Final residual = 0.00076066, No Iterations 2
time step continuity errors : sum local = 0.015687, global = -0.00550479, cumulative = -0.0154558
smoothSolver:  Solving for epsilon, Initial residual = 0.00998828, Final residual = 0.000255773, No Iterations 2
bounding epsilon, min: -3.47234 max: 249.706 average: 10.5446
smoothSolver:  Solving for k, Initial residual = 0.0116688, Final residual = 0.000493396, No Iterations 2
ExecutionTime = 0.09 s  ClockTime = 0 s

Time = 26

smoothSolver:  Solving for Ux, Initial residual = 0.0147658, Final residual = 0.000680748, No Iterations 2
smoothSolver:  Solving for Uy, Initial residual = 0.0275954, Final residual = 0.00123497, No Iterations 2
GAMG:  Solving for p, Initial residual = 0.0203394, Final residual = 0.000782341, No Iterations 2
time step continuity errors : sum local = 0.0156384, global = -0.00566842, cumulative = -0.0211243
smoothSolver:  Solving for epsilon, Initial residual = 0.00951036, Final residual = 0.000275844, No Iterations 2
bounding epsilon, min: -2.89258 max: 278.987 average: 11.2387
smoothSolver:  Solving for k, Initial residual = 0.0116249, Final residual = 0.000559367, No Iterations 2
ExecutionTime = 0.1 s  ClockTime = 0 s

Time = 27

smoothSolver:  Solving for Ux, Initial residual = 0.0147584, Final residual = 0.000868068, No Iterations 2
smoothSolver:  Solving for Uy, Initial residual = 0.0268023, Final residual = 0.00136341, No Iterations 2
GAMG:  Solving for p, Initial residual = 0.0194314, Final residual = 0.000839606, No Iterations 2
time step continuity errors : sum local = 0.0162851, global = -0.00589358, cumulative = -0.0270179
smoothSolver:  Solving for epsilon, Initial residual = 0.0109711, Final residual = 0.000275811, No Iterations 2
bounding epsilon, min: -2.51914 max: 309.097 average: 11.9916
smoothSolver:  Solving for k, Initial residual = 0.0106542, Final residual = 0.000575023, No Iterations 2
ExecutionTime = 0.1 s  ClockTime = 0 s

Time = 28

smoothSolver:  Solving for Ux, Initial residual = 0.0148125, Final residual = 0.00102062, No Iterations 2
smoothSolver:  Solving for Uy, Initial residual = 0.027849, Final residual = 0.00149478, No Iterations 2
GAMG:  Solving for p, Initial residual = 0.0186745, Final residual = 0.000897431, No Iterations 2
time step continuity errors : sum local = 0.0168274, global = -0.00587916, cumulative = -0.032897
smoothSolver:  Solving for epsilon, Initial residual = 0.00924402, Final residual = 0.000262026, No Iterations 2
bounding epsilon, min: -2.58974 max: 340.666 average: 12.7496
smoothSolver:  Solving for k, Initial residual = 0.0105693, Final residual = 0.000581794, No Iterations 2
ExecutionTime = 0.1 s  ClockTime = 0 s

Time = 29

smoothSolver:  Solving for Ux, Initial residual = 0.0144663, Final residual = 0.00109197, No Iterations 2
smoothSolver:  Solving for Uy, Initial residual = 0.0279815, Final residual = 0.00159313, No Iterations 2
GAMG:  Solving for p, Initial residual = 0.0181053, Final residual = 0.000927729, No Iterations 2
time step continuity errors : sum local = 0.0168985, global = -0.00579723, cumulative = -0.0386942
smoothSolver:  Solving for epsilon, Initial residual = 0.0102645, Final residual = 0.000257262, No Iterations 2
bounding epsilon, min: -1.46212 max: 360.953 average: 13.3679
smoothSolver:  Solving for k, Initial residual = 0.00956212, Final residual = 0.000596515, No Iterations 2
ExecutionTime = 0.1 s  ClockTime = 0 s

Time = 30

smoothSolver:  Solving for Ux, Initial residual = 0.014009, Final residual = 0.00111086, No Iterations 2
smoothSolver:  Solving for Uy, Initial residual = 0.0288902, Final residual = 0.00161386, No Iterations 2
GAMG:  Solving for p, Initial residual = 0.017958, Final residual = 0.000942179, No Iterations 2
time step continuity errors : sum local = 0.0166809, global = -0.00552626, cumulative = -0.0442205
smoothSolver:  Solving for epsilon, Initial residual = 0.00823262, Final residual = 0.000252546, No Iterations 2
bounding epsilon, min: -2.46391 max: 383.38 average: 14.0225
smoothSolver:  Solving for k, Initial residual = 0.00932389, Final residual = 0.00059418, No Iterations 2
ExecutionTime = 0.12 s  ClockTime = 0 s

Time = 31

smoothSolver:  Solving for Ux, Initial residual = 0.0133967, Final residual = 0.00107543, No Iterations 2
smoothSolver:  Solving for Uy, Initial residual = 0.0282028, Final residual = 0.00159339, No Iterations 2
GAMG:  Solving for p, Initial residual = 0.0172863, Final residual = 0.000928437, No Iterations 2
time step continuity errors : sum local = 0.0161137, global = -0.00496338, cumulative = -0.0491839
smoothSolver:  Solving for epsilon, Initial residual = 0.00867714, Final residual = 0.000236847, No Iterations 2
bounding epsilon, min: -1.12341 max: 402.772 average: 14.4941
smoothSolver:  Solving for k, Initial residual = 0.00794814, Final residual = 0.000558784, No Iterations 2
ExecutionTime = 0.12 s  ClockTime = 0 s

Time = 32

smoothSolver:  Solving for Ux, Initial residual = 0.0128049, Final residual = 0.00104067, No Iterations 2
smoothSolver:  Solving for Uy, Initial residual = 0.0277247, Final residual = 0.00150202, No Iterations 2
GAMG:  Solving for p, Initial residual = 0.0163074, Final residual = 0.000912568, No Iterations 2
time step continuity errors : sum local = 0.0155536, global = -0.00435371, cumulative = -0.0535376
smoothSolver:  Solving for epsilon, Initial residual = 0.00709811, Final residual = 0.000216788, No Iterations 2
bounding epsilon, min: -1.74916 max: 428.111 average: 14.9625
smoothSolver:  Solving for k, Initial residual = 0.00796974, Final residual = 0.000502806, No Iterations 2
ExecutionTime = 0.12 s  ClockTime = 0 s

Time = 33

smoothSolver:  Solving for Ux, Initial residual = 0.012017, Final residual = 0.000973815, No Iterations 2
smoothSolver:  Solving for Uy, Initial residual = 0.026596, Final residual = 0.00139476, No Iterations 2
GAMG:  Solving for p, Initial residual = 0.0152345, Final residual = 0.000867631, No Iterations 2
time step continuity errors : sum local = 0.014645, global = -0.00349702, cumulative = -0.0570346
smoothSolver:  Solving for epsilon, Initial residual = 0.00735666, Final residual = 0.000201709, No Iterations 2
bounding epsilon, min: -1.33141 max: 450.854 average: 15.2965
smoothSolver:  Solving for k, Initial residual = 0.00696265, Final residual = 0.000436796, No Iterations 2
ExecutionTime = 0.13 s  ClockTime = 0 s

Time = 34

smoothSolver:  Solving for Ux, Initial residual = 0.0116272, Final residual = 0.000973765, No Iterations 2
smoothSolver:  Solving for Uy, Initial residual = 0.0260579, Final residual = 0.00133619, No Iterations 2
GAMG:  Solving for p, Initial residual = 0.0145022, Final residual = 0.000820668, No Iterations 2
time step continuity errors : sum local = 0.0137739, global = -0.00230508, cumulative = -0.0593397
smoothSolver:  Solving for epsilon, Initial residual = 0.00629061, Final residual = 0.00018427, No Iterations 2
bounding epsilon, min: -2.0844 max: 469.072 average: 15.7024
smoothSolver:  Solving for k, Initial residual = 0.00670279, Final residual = 0.000419658, No Iterations 2
ExecutionTime = 0.13 s  ClockTime = 0 s

Time = 35

smoothSolver:  Solving for Ux, Initial residual = 0.0109824, Final residual = 0.000968806, No Iterations 2
smoothSolver:  Solving for Uy, Initial residual = 0.0254067, Final residual = 0.00136345, No Iterations 2
GAMG:  Solving for p, Initial residual = 0.0138884, Final residual = 0.000761022, No Iterations 2
time step continuity errors : sum local = 0.0127765, global = -0.000870326, cumulative = -0.06021
smoothSolver:  Solving for epsilon, Initial residual = 0.00636717, Final residual = 0.000159822, No Iterations 2
bounding epsilon, min: -1.47839 max: 481.54 average: 15.9697
smoothSolver:  Solving for k, Initial residual = 0.0057048, Final residual = 0.000358053, No Iterations 2
ExecutionTime = 0.13 s  ClockTime = 0 s

Time = 36

smoothSolver:  Solving for Ux, Initial residual = 0.0106601, Final residual = 0.000994112, No Iterations 2
smoothSolver:  Solving for Uy, Initial residual = 0.0246753, Final residual = 0.00147019, No Iterations 2
GAMG:  Solving for p, Initial residual = 0.0132465, Final residual = 0.000698738, No Iterations 2
time step continuity errors : sum local = 0.0117742, global = -0.000141583, cumulative = -0.0603516
smoothSolver:  Solving for epsilon, Initial residual = 0.00553747, Final residual = 0.0001514, No Iterations 2
bounding epsilon, min: -2.25248 max: 489.872 average: 16.3025
smoothSolver:  Solving for k, Initial residual = 0.0052498, Final residual = 0.000302287, No Iterations 2
ExecutionTime = 0.14 s  ClockTime = 0 s

Time = 37

smoothSolver:  Solving for Ux, Initial residual = 0.0102248, Final residual = 0.000972177, No Iterations 2
smoothSolver:  Solving for Uy, Initial residual = 0.0231612, Final residual = 0.00153581, No Iterations 2
GAMG:  Solving for p, Initial residual = 0.012405, Final residual = 0.000632864, No Iterations 2
time step continuity errors : sum local = 0.0108003, global = 0.000118107, cumulative = -0.0602335
smoothSolver:  Solving for epsilon, Initial residual = 0.0054555, Final residual = 0.000126704, No Iterations 2
bounding epsilon, min: -1.36172 max: 495.839 average: 16.5091
smoothSolver:  Solving for k, Initial residual = 0.00469085, Final residual = 0.000254251, No Iterations 2
ExecutionTime = 0.14 s  ClockTime = 0 s

Time = 38

smoothSolver:  Solving for Ux, Initial residual = 0.00993643, Final residual = 0.000970476, No Iterations 2
smoothSolver:  Solving for Uy, Initial residual = 0.0219271, Final residual = 0.00151433, No Iterations 2
GAMG:  Solving for p, Initial residual = 0.0118396, Final residual = 0.000586761, No Iterations 2
time step continuity errors : sum local = 0.010137, global = 5.8683e-05, cumulative = -0.0601748
smoothSolver:  Solving for epsilon, Initial residual = 0.00466063, Final residual = 0.000126819, No Iterations 2
bounding epsilon, min: -2.31312 max: 500.981 average: 16.745
smoothSolver:  Solving for k, Initial residual = 0.00433622, Final residual = 0.000218701, No Iterations 2
ExecutionTime = 0.14 s  ClockTime = 0 s

Time = 39

smoothSolver:  Solving for Ux, Initial residual = 0.00959674, Final residual = 0.000949827, No Iterations 2
smoothSolver:  Solving for Uy, Initial residual = 0.0204899, Final residual = 0.00144769, No Iterations 2
GAMG:  Solving for p, Initial residual = 0.0110529, Final residual = 0.000542703, No Iterations 2
time step continuity errors : sum local = 0.00949911, global = -5.58044e-05, cumulative = -0.0602306
smoothSolver:  Solving for epsilon, Initial residual = 0.00467925, Final residual = 0.000121639, No Iterations 2
bounding epsilon, min: -1.70457 max: 506.545 average: 16.9007
smoothSolver:  Solving for k, Initial residual = 0.00435182, Final residual = 0.000216991, No Iterations 2
ExecutionTime = 0.15 s  ClockTime = 0 s

Time = 40

smoothSolver:  Solving for Ux, Initial residual = 0.00940217, Final residual = 0.00091718, No Iterations 2
smoothSolver:  Solving for Uy, Initial residual = 0.0198158, Final residual = 0.00133767, No Iterations 2
GAMG:  Solving for p, Initial residual = 0.0102784, Final residual = 0.000496494, No Iterations 2
time step continuity errors : sum local = 0.00877435, global = -0.000140752, cumulative = -0.0603714
smoothSolver:  Solving for epsilon, Initial residual = 0.00363487, Final residual = 0.000115072, No Iterations 2
bounding epsilon, min: -1.84798 max: 516.649 average: 17.0656
smoothSolver:  Solving for k, Initial residual = 0.00408879, Final residual = 0.000193266, No Iterations 2
ExecutionTime = 0.15 s  ClockTime = 0 s

Time = 41

smoothSolver:  Solving for Ux, Initial residual = 0.0091016, Final residual = 0.000856836, No Iterations 2
smoothSolver:  Solving for Uy, Initial residual = 0.0180691, Final residual = 0.00117691, No Iterations 2
GAMG:  Solving for p, Initial residual = 0.00934866, Final residual = 0.000428958, No Iterations 2
time step continuity errors : sum local = 0.00767634, global = -5.40758e-05, cumulative = -0.0604254
smoothSolver:  Solving for epsilon, Initial residual = 0.00367862, Final residual = 0.000107571, No Iterations 2
bounding epsilon, min: -1.40369 max: 527.399 average: 17.2072
smoothSolver:  Solving for k, Initial residual = 0.00404501, Final residual = 0.00015768, No Iterations 2
ExecutionTime = 0.15 s  ClockTime = 0 s

Time = 42

smoothSolver:  Solving for Ux, Initial residual = 0.00889211, Final residual = 0.000801573, No Iterations 2
smoothSolver:  Solving for Uy, Initial residual = 0.0168027, Final residual = 0.00103906, No Iterations 2
GAMG:  Solving for p, Initial residual = 0.00857129, Final residual = 0.000356243, No Iterations 2
time step continuity errors : sum local = 0.00643871, global = 0.000216369, cumulative = -0.0602091
smoothSolver:  Solving for epsilon, Initial residual = 0.00298306, Final residual = 9.41022e-05, No Iterations 2
bounding epsilon, min: -2.20895 max: 536.487 average: 17.3308
smoothSolver:  Solving for k, Initial residual = 0.00387096, Final residual = 0.000179767, No Iterations 2
ExecutionTime = 0.16 s  ClockTime = 0 s

Time = 43

smoothSolver:  Solving for Ux, Initial residual = 0.00876656, Final residual = 0.000744597, No Iterations 2
smoothSolver:  Solving for Uy, Initial residual = 0.0153492, Final residual = 0.000899998, No Iterations 2
GAMG:  Solving for p, Initial residual = 0.00778288, Final residual = 0.000289896, No Iterations 2
time step continuity errors : sum local = 0.00530022, global = 0.000529294, cumulative = -0.0596798
smoothSolver:  Solving for epsilon, Initial residual = 0.0033131, Final residual = 9.5055e-05, No Iterations 2
bounding epsilon, min: -1.75456 max: 546.538 average: 17.4639
smoothSolver:  Solving for k, Initial residual = 0.00380651, Final residual = 0.000156836, No Iterations 2
ExecutionTime = 0.16 s  ClockTime = 0 s

Time = 44

smoothSolver:  Solving for Ux, Initial residual = 0.00947399, Final residual = 0.000722731, No Iterations 2
smoothSolver:  Solving for Uy, Initial residual = 0.0187494, Final residual = 0.00134232, No Iterations 2
GAMG:  Solving for p, Initial residual = 0.00755947, Final residual = 0.000297741, No Iterations 2
time step continuity errors : sum local = 0.00548463, global = 0.000871983, cumulative = -0.0588078
smoothSolver:  Solving for epsilon, Initial residual = 0.00300958, Final residual = 0.000104536, No Iterations 2
bounding epsilon, min: -1.45879 max: 558.963 average: 17.6381
smoothSolver:  Solving for k, Initial residual = 0.00384446, Final residual = 0.000182704, No Iterations 2
ExecutionTime = 0.16 s  ClockTime = 0 s

Time = 45

smoothSolver:  Solving for Ux, Initial residual = 0.00923101, Final residual = 0.000713103, No Iterations 2
smoothSolver:  Solving for Uy, Initial residual = 0.0159436, Final residual = 0.00075778, No Iterations 2
GAMG:  Solving for p, Initial residual = 0.00663004, Final residual = 0.000245598, No Iterations 2
time step continuity errors : sum local = 0.00459683, global = 0.00117959, cumulative = -0.0576282
smoothSolver:  Solving for epsilon, Initial residual = 0.00304749, Final residual = 9.54348e-05, No Iterations 2
bounding epsilon, min: -1.38672 max: 570.876 average: 17.7641
smoothSolver:  Solving for k, Initial residual = 0.00356561, Final residual = 0.000165927, No Iterations 2
ExecutionTime = 0.16 s  ClockTime = 0 s

Time = 46

smoothSolver:  Solving for Ux, Initial residual = 0.00868324, Final residual = 0.000667274, No Iterations 2
smoothSolver:  Solving for Uy, Initial residual = 0.0138398, Final residual = 0.000606997, No Iterations 2
GAMG:  Solving for p, Initial residual = 0.00606378, Final residual = 0.000228143, No Iterations 2
time step continuity errors : sum local = 0.0043232, global = 0.00133465, cumulative = -0.0562936
smoothSolver:  Solving for epsilon, Initial residual = 0.00262798, Final residual = 8.94923e-05, No Iterations 2
bounding epsilon, min: -2.52446 max: 581.236 average: 17.9026
smoothSolver:  Solving for k, Initial residual = 0.003203, Final residual = 0.000148701, No Iterations 2
ExecutionTime = 0.17 s  ClockTime = 0 s

Time = 47

smoothSolver:  Solving for Ux, Initial residual = 0.00819543, Final residual = 0.000621973, No Iterations 2
smoothSolver:  Solving for Uy, Initial residual = 0.0130893, Final residual = 0.000561774, No Iterations 2
GAMG:  Solving for p, Initial residual = 0.00566463, Final residual = 0.000217307, No Iterations 2
time step continuity errors : sum local = 0.0041674, global = 0.00138995, cumulative = -0.0549036
smoothSolver:  Solving for epsilon, Initial residual = 0.00261919, Final residual = 9.16217e-05, No Iterations 2
bounding epsilon, min: -2.12761 max: 590.317 average: 18.0261
smoothSolver:  Solving for k, Initial residual = 0.00314114, Final residual = 0.000163134, No Iterations 2
ExecutionTime = 0.17 s  ClockTime = 0 s

Time = 48

smoothSolver:  Solving for Ux, Initial residual = 0.0080006, Final residual = 0.000570409, No Iterations 2
smoothSolver:  Solving for Uy, Initial residual = 0.0146505, Final residual = 0.000596509, No Iterations 2
GAMG:  Solving for p, Initial residual = 0.00544279, Final residual = 0.000215944, No Iterations 2
time step continuity errors : sum local = 0.00417567, global = 0.00145188, cumulative = -0.0534517
smoothSolver:  Solving for epsilon, Initial residual = 0.00246461, Final residual = 9.26763e-05, No Iterations 2
bounding epsilon, min: -2.55916 max: 597.799 average: 18.1683
smoothSolver:  Solving for k, Initial residual = 0.00311173, Final residual = 0.000149079, No Iterations 2
ExecutionTime = 0.17 s  ClockTime = 0 s

Time = 49

smoothSolver:  Solving for Ux, Initial residual = 0.00726518, Final residual = 0.000504306, No Iterations 2
smoothSolver:  Solving for Uy, Initial residual = 0.0130544, Final residual = 0.000529191, No Iterations 2
GAMG:  Solving for p, Initial residual = 0.00480609, Final residual = 0.000196409, No Iterations 2
time step continuity errors : sum local = 0.00384672, global = 0.00140601, cumulative = -0.0520457
smoothSolver:  Solving for epsilon, Initial residual = 0.00246249, Final residual = 0.000100102, No Iterations 2
bounding epsilon, min: -1.92819 max: 604.483 average: 18.2756
smoothSolver:  Solving for k, Initial residual = 0.00303452, Final residual = 0.000150478, No Iterations 2
ExecutionTime = 0.18 s  ClockTime = 0 s

Time = 50

smoothSolver:  Solving for Ux, Initial residual = 0.00641842, Final residual = 0.000434094, No Iterations 2
smoothSolver:  Solving for Uy, Initial residual = 0.0113917, Final residual = 0.00046049, No Iterations 2
GAMG:  Solving for p, Initial residual = 0.00436044, Final residual = 0.000190036, No Iterations 2
time step continuity errors : sum local = 0.00375582, global = 0.00136288, cumulative = -0.0506828
smoothSolver:  Solving for epsilon, Initial residual = 0.00242368, Final residual = 9.50204e-05, No Iterations 2
bounding epsilon, min: -1.20175 max: 614.488 average: 18.3423
smoothSolver:  Solving for k, Initial residual = 0.00291484, Final residual = 0.000159656, No Iterations 2
ExecutionTime = 0.18 s  ClockTime = 0 s

Time = 51

smoothSolver:  Solving for Ux, Initial residual = 0.00574943, Final residual = 0.00036696, No Iterations 2
smoothSolver:  Solving for Uy, Initial residual = 0.0107537, Final residual = 0.000412046, No Iterations 2
GAMG:  Solving for p, Initial residual = 0.00403941, Final residual = 0.000186627, No Iterations 2
time step continuity errors : sum local = 0.00371655, global = 0.00134165, cumulative = -0.0493412
smoothSolver:  Solving for epsilon, Initial residual = 0.00237593, Final residual = 9.41755e-05, No Iterations 2
bounding epsilon, min: -3.43389 max: 623.697 average: 18.4268
smoothSolver:  Solving for k, Initial residual = 0.00283403, Final residual = 0.000153014, No Iterations 2
ExecutionTime = 0.18 s  ClockTime = 0 s

Time = 52

smoothSolver:  Solving for Ux, Initial residual = 0.00513782, Final residual = 0.000305769, No Iterations 2
smoothSolver:  Solving for Uy, Initial residual = 0.0100914, Final residual = 0.000403768, No Iterations 2
GAMG:  Solving for p, Initial residual = 0.00375049, Final residual = 0.000177776, No Iterations 2
time step continuity errors : sum local = 0.00356438, global = 0.00129016, cumulative = -0.048051
smoothSolver:  Solving for epsilon, Initial residual = 0.00238495, Final residual = 9.40178e-05, No Iterations 2
bounding epsilon, min: -2.47353 max: 630.349 average: 18.4832
smoothSolver:  Solving for k, Initial residual = 0.00280469, Final residual = 0.000153799, No Iterations 2
ExecutionTime = 0.19 s  ClockTime = 0 s

Time = 53

smoothSolver:  Solving for Ux, Initial residual = 0.00454146, Final residual = 0.000264766, No Iterations 2
smoothSolver:  Solving for Uy, Initial residual = 0.00943202, Final residual = 0.000426809, No Iterations 2
GAMG:  Solving for p, Initial residual = 0.00344868, Final residual = 0.000160487, No Iterations 2
time step continuity errors : sum local = 0.00323743, global = 0.00119548, cumulative = -0.0468555
smoothSolver:  Solving for epsilon, Initial residual = 0.00221585, Final residual = 8.07073e-05, No Iterations 2
bounding epsilon, min: -2.52212 max: 634.555 average: 18.5582
smoothSolver:  Solving for k, Initial residual = 0.00269085, Final residual = 0.00014504, No Iterations 2
ExecutionTime = 0.19 s  ClockTime = 0 s

Time = 54

smoothSolver:  Solving for Ux, Initial residual = 0.00396414, Final residual = 0.000235616, No Iterations 2
smoothSolver:  Solving for Uy, Initial residual = 0.00867121, Final residual = 0.000456606, No Iterations 2
GAMG:  Solving for p, Initial residual = 0.00316412, Final residual = 0.000141732, No Iterations 2
time step continuity errors : sum local = 0.002874, global = 0.00104636, cumulative = -0.0458092
smoothSolver:  Solving for epsilon, Initial residual = 0.0021505, Final residual = 7.31396e-05, No Iterations 2
bounding epsilon, min: -2.97774 max: 637.109 average: 18.6225
smoothSolver:  Solving for k, Initial residual = 0.00257601, Final residual = 0.000134573, No Iterations 2
ExecutionTime = 0.19 s  ClockTime = 0 s

Time = 55

smoothSolver:  Solving for Ux, Initial residual = 0.00349864, Final residual = 0.000214818, No Iterations 2
smoothSolver:  Solving for Uy, Initial residual = 0.00780845, Final residual = 0.000447517, No Iterations 2
GAMG:  Solving for p, Initial residual = 0.00294052, Final residual = 0.000128884, No Iterations 2
time step continuity errors : sum local = 0.00262742, global = 0.000884858, cumulative = -0.0449243
smoothSolver:  Solving for epsilon, Initial residual = 0.0020163, Final residual = 7.21851e-05, No Iterations 2
bounding epsilon, min: -2.48443 max: 638.536 average: 18.678
smoothSolver:  Solving for k, Initial residual = 0.00253451, Final residual = 0.000128207, No Iterations 2
ExecutionTime = 0.2 s  ClockTime = 0 s

Time = 56

smoothSolver:  Solving for Ux, Initial residual = 0.00314933, Final residual = 0.000207074, No Iterations 2
smoothSolver:  Solving for Uy, Initial residual = 0.00695829, Final residual = 0.000414631, No Iterations 2
GAMG:  Solving for p, Initial residual = 0.00276215, Final residual = 0.000126011, No Iterations 2
time step continuity errors : sum local = 0.00257886, global = 0.000763828, cumulative = -0.0441605
smoothSolver:  Solving for epsilon, Initial residual = 0.00205637, Final residual = 6.12297e-05, No Iterations 2
bounding epsilon, min: -2.93277 max: 642.788 average: 18.6862
smoothSolver:  Solving for k, Initial residual = 0.00241159, Final residual = 0.000121305, No Iterations 2
ExecutionTime = 0.2 s  ClockTime = 0 s

Time = 57

smoothSolver:  Solving for Ux, Initial residual = 0.00300841, Final residual = 0.000203708, No Iterations 2
smoothSolver:  Solving for Uy, Initial residual = 0.00695958, Final residual = 0.000377508, No Iterations 2
GAMG:  Solving for p, Initial residual = 0.00267774, Final residual = 0.000123994, No Iterations 2
time step continuity errors : sum local = 0.0025427, global = 0.00069759, cumulative = -0.0434629
smoothSolver:  Solving for epsilon, Initial residual = 0.00200549, Final residual = 6.70427e-05, No Iterations 2
bounding epsilon, min: -1.91614 max: 646.798 average: 18.7188
smoothSolver:  Solving for k, Initial residual = 0.00244381, Final residual = 0.000119769, No Iterations 2
ExecutionTime = 0.2 s  ClockTime = 0 s

Time = 58

smoothSolver:  Solving for Ux, Initial residual = 0.00332697, Final residual = 0.000203885, No Iterations 2
smoothSolver:  Solving for Uy, Initial residual = 0.00969986, Final residual = 0.000430661, No Iterations 2
GAMG:  Solving for p, Initial residual = 0.00279024, Final residual = 0.000142927, No Iterations 2
time step continuity errors : sum local = 0.00292914, global = 0.000770426, cumulative = -0.0426925
smoothSolver:  Solving for epsilon, Initial residual = 0.00202136, Final residual = 5.88153e-05, No Iterations 2
smoothSolver:  Solving for k, Initial residual = 0.00249131, Final residual = 0.000131154, No Iterations 2
ExecutionTime = 0.2 s  ClockTime = 0 s

Time = 59

smoothSolver:  Solving for Ux, Initial residual = 0.00304847, Final residual = 0.000177355, No Iterations 2
smoothSolver:  Solving for Uy, Initial residual = 0.00825192, Final residual = 0.000329238, No Iterations 2
GAMG:  Solving for p, Initial residual = 0.00256016, Final residual = 0.000119501, No Iterations 2
time step continuity errors : sum local = 0.0024566, global = 0.000646966, cumulative = -0.0420455
smoothSolver:  Solving for epsilon, Initial residual = 0.0019888, Final residual = 6.41427e-05, No Iterations 2
bounding epsilon, min: -0.505198 max: 649.835 average: 18.7346
smoothSolver:  Solving for k, Initial residual = 0.00242146, Final residual = 0.000121526, No Iterations 2
ExecutionTime = 0.21 s  ClockTime = 0 s

Time = 60

smoothSolver:  Solving for Ux, Initial residual = 0.0026623, Final residual = 0.000156565, No Iterations 2
smoothSolver:  Solving for Uy, Initial residual = 0.00670852, Final residual = 0.000321631, No Iterations 2
GAMG:  Solving for p, Initial residual = 0.00229743, Final residual = 8.98095e-05, No Iterations 2
time step continuity errors : sum local = 0.00184718, global = 0.000460526, cumulative = -0.041585
smoothSolver:  Solving for epsilon, Initial residual = 0.00189249, Final residual = 5.64009e-05, No Iterations 2
bounding epsilon, min: -0.91261 max: 650.308 average: 18.7234
smoothSolver:  Solving for k, Initial residual = 0.00235392, Final residual = 0.000124344, No Iterations 2
ExecutionTime = 0.21 s  ClockTime = 0 s

Time = 61

smoothSolver:  Solving for Ux, Initial residual = 0.00259992, Final residual = 0.000153689, No Iterations 2
smoothSolver:  Solving for Uy, Initial residual = 0.00645852, Final residual = 0.000396123, No Iterations 2
GAMG:  Solving for p, Initial residual = 0.00228478, Final residual = 0.000102071, No Iterations 2
time step continuity errors : sum local = 0.00209456, global = 0.000392276, cumulative = -0.0411927
smoothSolver:  Solving for epsilon, Initial residual = 0.00202646, Final residual = 6.16704e-05, No Iterations 2
bounding epsilon, min: -2.47127 max: 650.065 average: 18.7788
smoothSolver:  Solving for k, Initial residual = 0.00232742, Final residual = 0.000121422, No Iterations 2
ExecutionTime = 0.21 s  ClockTime = 0 s

Time = 62

smoothSolver:  Solving for Ux, Initial residual = 0.00244647, Final residual = 0.000142419, No Iterations 2
smoothSolver:  Solving for Uy, Initial residual = 0.00567135, Final residual = 0.000228669, No Iterations 2
GAMG:  Solving for p, Initial residual = 0.00207993, Final residual = 9.69458e-05, No Iterations 2
time step continuity errors : sum local = 0.0019907, global = 0.000284277, cumulative = -0.0409084
smoothSolver:  Solving for epsilon, Initial residual = 0.001871, Final residual = 5.59431e-05, No Iterations 2
bounding epsilon, min: -2.70294 max: 652.069 average: 18.7982
smoothSolver:  Solving for k, Initial residual = 0.00228154, Final residual = 0.000122889, No Iterations 2
ExecutionTime = 0.22 s  ClockTime = 0 s

Time = 63

smoothSolver:  Solving for Ux, Initial residual = 0.0022998, Final residual = 0.000143665, No Iterations 2
smoothSolver:  Solving for Uy, Initial residual = 0.00472933, Final residual = 0.000201389, No Iterations 2
GAMG:  Solving for p, Initial residual = 0.00195156, Final residual = 0.000103012, No Iterations 2
time step continuity errors : sum local = 0.00211153, global = 0.000255569, cumulative = -0.0406529
smoothSolver:  Solving for epsilon, Initial residual = 0.00192508, Final residual = 6.00579e-05, No Iterations 2
bounding epsilon, min: -2.18848 max: 654.208 average: 18.8778
smoothSolver:  Solving for k, Initial residual = 0.00217531, Final residual = 0.000118295, No Iterations 2
ExecutionTime = 0.22 s  ClockTime = 0 s

Time = 64

smoothSolver:  Solving for Ux, Initial residual = 0.00219961, Final residual = 0.000145991, No Iterations 2
smoothSolver:  Solving for Uy, Initial residual = 0.00432746, Final residual = 0.000172548, No Iterations 2
GAMG:  Solving for p, Initial residual = 0.00187651, Final residual = 0.0001054, No Iterations 2
time step continuity errors : sum local = 0.00215823, global = 0.000170731, cumulative = -0.0404821
smoothSolver:  Solving for epsilon, Initial residual = 0.00187841, Final residual = 5.6278e-05, No Iterations 2
bounding epsilon, min: -3.07647 max: 655.139 average: 18.8876
smoothSolver:  Solving for k, Initial residual = 0.00212319, Final residual = 0.000119543, No Iterations 2
ExecutionTime = 0.22 s  ClockTime = 0 s

Time = 65

smoothSolver:  Solving for Ux, Initial residual = 0.00211825, Final residual = 0.000145052, No Iterations 2
smoothSolver:  Solving for Uy, Initial residual = 0.00408807, Final residual = 0.000168393, No Iterations 2
GAMG:  Solving for p, Initial residual = 0.00177764, Final residual = 9.96084e-05, No Iterations 2
time step continuity errors : sum local = 0.00203786, global = 9.09497e-05, cumulative = -0.0403912
smoothSolver:  Solving for epsilon, Initial residual = 0.00184477, Final residual = 5.941e-05, No Iterations 2
bounding epsilon, min: -2.25939 max: 654.727 average: 18.9245
smoothSolver:  Solving for k, Initial residual = 0.00202913, Final residual = 0.000114263, No Iterations 2
ExecutionTime = 0.23 s  ClockTime = 0 s

Time = 66

smoothSolver:  Solving for Ux, Initial residual = 0.00204658, Final residual = 0.000141544, No Iterations 2
smoothSolver:  Solving for Uy, Initial residual = 0.00381553, Final residual = 0.000156768, No Iterations 2
GAMG:  Solving for p, Initial residual = 0.00169022, Final residual = 9.7879e-05, No Iterations 2
time step continuity errors : sum local = 0.0020004, global = -4.04473e-05, cumulative = -0.0404316
smoothSolver:  Solving for epsilon, Initial residual = 0.00178341, Final residual = 5.07799e-05, No Iterations 2
bounding epsilon, min: -1.83465 max: 654.529 average: 18.9272
smoothSolver:  Solving for k, Initial residual = 0.00195893, Final residual = 0.000113636, No Iterations 2
ExecutionTime = 0.23 s  ClockTime = 0 s

Time = 67

smoothSolver:  Solving for Ux, Initial residual = 0.00196037, Final residual = 0.000142213, No Iterations 2
smoothSolver:  Solving for Uy, Initial residual = 0.00360167, Final residual = 0.000148089, No Iterations 2
GAMG:  Solving for p, Initial residual = 0.00157966, Final residual = 9.32336e-05, No Iterations 2
time step continuity errors : sum local = 0.00190309, global = -0.000211921, cumulative = -0.0406436
smoothSolver:  Solving for epsilon, Initial residual = 0.00165869, Final residual = 5.5731e-05, No Iterations 2
bounding epsilon, min: -3.51474 max: 656.272 average: 18.9835
smoothSolver:  Solving for k, Initial residual = 0.00188306, Final residual = 0.000109141, No Iterations 2
ExecutionTime = 0.23 s  ClockTime = 0 s

Time = 68

smoothSolver:  Solving for Ux, Initial residual = 0.00191422, Final residual = 0.000136315, No Iterations 2
smoothSolver:  Solving for Uy, Initial residual = 0.00350972, Final residual = 0.000150944, No Iterations 2
GAMG:  Solving for p, Initial residual = 0.00153265, Final residual = 9.4519e-05, No Iterations 2
time step continuity errors : sum local = 0.00192807, global = -0.00031364, cumulative = -0.0409572
smoothSolver:  Solving for epsilon, Initial residual = 0.00178394, Final residual = 4.89019e-05, No Iterations 2
bounding epsilon, min: -1.4694 max: 658.026 average: 18.9836
smoothSolver:  Solving for k, Initial residual = 0.00181372, Final residual = 0.000106846, No Iterations 2
ExecutionTime = 0.24 s  ClockTime = 0 s

Time = 69

smoothSolver:  Solving for Ux, Initial residual = 0.00184273, Final residual = 0.000128114, No Iterations 2
smoothSolver:  Solving for Uy, Initial residual = 0.00352825, Final residual = 0.00017033, No Iterations 2
GAMG:  Solving for p, Initial residual = 0.00143954, Final residual = 8.92775e-05, No Iterations 2
time step continuity errors : sum local = 0.00181839, global = -0.000392162, cumulative = -0.0413494
smoothSolver:  Solving for epsilon, Initial residual = 0.00163622, Final residual = 4.57216e-05, No Iterations 2
bounding epsilon, min: -1.82242 max: 659.191 average: 19.0164
smoothSolver:  Solving for k, Initial residual = 0.00176591, Final residual = 0.000102397, No Iterations 2
ExecutionTime = 0.24 s  ClockTime = 0 s

Time = 70

smoothSolver:  Solving for Ux, Initial residual = 0.00176164, Final residual = 0.000118226, No Iterations 2
smoothSolver:  Solving for Uy, Initial residual = 0.00352593, Final residual = 0.000192859, No Iterations 2
GAMG:  Solving for p, Initial residual = 0.00136798, Final residual = 7.82825e-05, No Iterations 2
time step continuity errors : sum local = 0.00159189, global = -0.000438549, cumulative = -0.0417879
smoothSolver:  Solving for epsilon, Initial residual = 0.00168677, Final residual = 4.6965e-05, No Iterations 2
bounding epsilon, min: -2.70472 max: 659.488 average: 19.0103
smoothSolver:  Solving for k, Initial residual = 0.00174561, Final residual = 0.000101575, No Iterations 2
ExecutionTime = 0.24 s  ClockTime = 0 s

Time = 71

smoothSolver:  Solving for Ux, Initial residual = 0.00163269, Final residual = 0.000111217, No Iterations 2
smoothSolver:  Solving for Uy, Initial residual = 0.00340326, Final residual = 0.000221231, No Iterations 2
GAMG:  Solving for p, Initial residual = 0.0013509, Final residual = 6.87882e-05, No Iterations 2
time step continuity errors : sum local = 0.00139692, global = -0.000452494, cumulative = -0.0422404
smoothSolver:  Solving for epsilon, Initial residual = 0.00163385, Final residual = 4.80234e-05, No Iterations 2
bounding epsilon, min: -2.23038 max: 659.336 average: 18.9745
smoothSolver:  Solving for k, Initial residual = 0.00170927, Final residual = 9.45609e-05, No Iterations 2
ExecutionTime = 0.25 s  ClockTime = 0 s

Time = 72

smoothSolver:  Solving for Ux, Initial residual = 0.00151221, Final residual = 0.000108509, No Iterations 2
smoothSolver:  Solving for Uy, Initial residual = 0.00314684, Final residual = 0.000216117, No Iterations 2
GAMG:  Solving for p, Initial residual = 0.00129795, Final residual = 6.32501e-05, No Iterations 2
time step continuity errors : sum local = 0.0012815, global = -0.000448674, cumulative = -0.0426891
smoothSolver:  Solving for epsilon, Initial residual = 0.00164733, Final residual = 3.93033e-05, No Iterations 2
bounding epsilon, min: -1.78996 max: 658.886 average: 18.9511
smoothSolver:  Solving for k, Initial residual = 0.00166014, Final residual = 9.34262e-05, No Iterations 2
ExecutionTime = 0.25 s  ClockTime = 0 s

Time = 73

smoothSolver:  Solving for Ux, Initial residual = 0.00139498, Final residual = 0.000106624, No Iterations 2
smoothSolver:  Solving for Uy, Initial residual = 0.00310341, Final residual = 0.000205393, No Iterations 2
GAMG:  Solving for p, Initial residual = 0.00122805, Final residual = 6.10843e-05, No Iterations 2
time step continuity errors : sum local = 0.00123467, global = -0.000442809, cumulative = -0.0431319
smoothSolver:  Solving for epsilon, Initial residual = 0.00143974, Final residual = 3.99084e-05, No Iterations 2
bounding epsilon, min: -3.11925 max: 659.908 average: 18.932
smoothSolver:  Solving for k, Initial residual = 0.00164368, Final residual = 9.32407e-05, No Iterations 2
ExecutionTime = 0.25 s  ClockTime = 0 s

Time = 74

smoothSolver:  Solving for Ux, Initial residual = 0.00130946, Final residual = 0.000104919, No Iterations 2
smoothSolver:  Solving for Uy, Initial residual = 0.00300183, Final residual = 0.000180152, No Iterations 2
GAMG:  Solving for p, Initial residual = 0.00119926, Final residual = 6.13599e-05, No Iterations 2
time step continuity errors : sum local = 0.0012378, global = -0.000447574, cumulative = -0.0435795
smoothSolver:  Solving for epsilon, Initial residual = 0.00158918, Final residual = 3.71336e-05, No Iterations 2
bounding epsilon, min: -1.81642 max: 661.08 average: 18.9001
smoothSolver:  Solving for k, Initial residual = 0.0015994, Final residual = 8.29689e-05, No Iterations 2
ExecutionTime = 0.26 s  ClockTime = 0 s

Time = 75

smoothSolver:  Solving for Ux, Initial residual = 0.0013663, Final residual = 0.000100415, No Iterations 2
smoothSolver:  Solving for Uy, Initial residual = 0.00381904, Final residual = 0.000176711, No Iterations 2
GAMG:  Solving for p, Initial residual = 0.00127811, Final residual = 6.95346e-05, No Iterations 2
time step continuity errors : sum local = 0.00139838, global = -0.00051164, cumulative = -0.0440911
smoothSolver:  Solving for epsilon, Initial residual = 0.00142517, Final residual = 3.88667e-05, No Iterations 2
bounding epsilon, min: -2.45832 max: 661.697 average: 18.8955
smoothSolver:  Solving for k, Initial residual = 0.00167646, Final residual = 8.30997e-05, No Iterations 2
ExecutionTime = 0.26 s  ClockTime = 0 s

Time = 76

smoothSolver:  Solving for Ux, Initial residual = 0.00126622, Final residual = 8.71986e-05, No Iterations 2
smoothSolver:  Solving for Uy, Initial residual = 0.00349433, Final residual = 0.000158135, No Iterations 2
GAMG:  Solving for p, Initial residual = 0.00120403, Final residual = 5.94637e-05, No Iterations 2
time step continuity errors : sum local = 0.00119507, global = -0.000512102, cumulative = -0.0446032
smoothSolver:  Solving for epsilon, Initial residual = 0.00147731, Final residual = 3.90168e-05, No Iterations 2
bounding epsilon, min: -1.40904 max: 661.565 average: 18.8825
smoothSolver:  Solving for k, Initial residual = 0.00162794, Final residual = 8.72838e-05, No Iterations 2
ExecutionTime = 0.26 s  ClockTime = 0 s

Time = 77

smoothSolver:  Solving for Ux, Initial residual = 0.0784902, Final residual = 0.00690194, No Iterations 1
smoothSolver:  Solving for Uy, Initial residual = 0.237185, Final residual = 0.00967113, No Iterations 2
GAMG:  Solving for p, Initial residual = 0.00255579, Final residual = 0.000187657, No Iterations 2
time step continuity errors : sum local = 0.00374564, global = -0.000941922, cumulative = -0.0455451
smoothSolver:  Solving for epsilon, Initial residual = 0.0418245, Final residual = 0.003501, No Iterations 2
bounding epsilon, min: -4.51118 max: 661.281 average: 18.9961
smoothSolver:  Solving for k, Initial residual = 0.0116973, Final residual = 0.000981833, No Iterations 7
ExecutionTime = 0.26 s  ClockTime = 0 s

Time = 78

smoothSolver:  Solving for Ux, Initial residual = 0.00472188, Final residual = 0.000397333, No Iterations 1
smoothSolver:  Solving for Uy, Initial residual = 0.0128521, Final residual = 0.000695636, No Iterations 1
GAMG:  Solving for p, Initial residual = 0.00452654, Final residual = 0.000427027, No Iterations 1
time step continuity errors : sum local = 0.00887593, global = -0.00160571, cumulative = -0.0471508
smoothSolver:  Solving for epsilon, Initial residual = 0.00255827, Final residual = 0.000247052, No Iterations 1
bounding epsilon, min: -1.92365 max: 661.062 average: 19.2847
smoothSolver:  Solving for k, Initial residual = 0.00205122, Final residual = 7.78675e-05, No Iterations 2
bounding k, min: -7.02316e-05 max: 13.6471 average: 0.948857
ExecutionTime = 0.27 s  ClockTime = 0 s

Time = 79

smoothSolver:  Solving for Ux, Initial residual = 0.00396703, Final residual = 0.000126417, No Iterations 2
smoothSolver:  Solving for Uy, Initial residual = 0.0109585, Final residual = 0.000980202, No Iterations 1
GAMG:  Solving for p, Initial residual = 0.00438571, Final residual = 0.000216189, No Iterations 2
time step continuity errors : sum local = 0.00450001, global = -0.00135643, cumulative = -0.0485073
smoothSolver:  Solving for epsilon, Initial residual = 0.00228601, Final residual = 6.96787e-05, No Iterations 2
bounding epsilon, min: -0.998145 max: 662.986 average: 19.2943
smoothSolver:  Solving for k, Initial residual = 0.00183204, Final residual = 7.75093e-05, No Iterations 2
ExecutionTime = 0.27 s  ClockTime = 0 s

Time = 80

smoothSolver:  Solving for Ux, Initial residual = 0.0034898, Final residual = 0.000108649, No Iterations 2
smoothSolver:  Solving for Uy, Initial residual = 0.0114343, Final residual = 0.00108404, No Iterations 1
GAMG:  Solving for p, Initial residual = 0.00431029, Final residual = 0.000198855, No Iterations 2
time step continuity errors : sum local = 0.00411915, global = -0.00123225, cumulative = -0.0497395
smoothSolver:  Solving for epsilon, Initial residual = 0.00211888, Final residual = 5.24548e-05, No Iterations 2
bounding epsilon, min: -4.74406 max: 665.533 average: 19.4015
smoothSolver:  Solving for k, Initial residual = 0.00170739, Final residual = 6.39052e-05, No Iterations 2
ExecutionTime = 0.27 s  ClockTime = 0 s

Time = 81

smoothSolver:  Solving for Ux, Initial residual = 0.00479689, Final residual = 0.000165588, No Iterations 2
smoothSolver:  Solving for Uy, Initial residual = 0.0215991, Final residual = 0.000711078, No Iterations 2
GAMG:  Solving for p, Initial residual = 0.00225459, Final residual = 0.000134232, No Iterations 2
time step continuity errors : sum local = 0.0026849, global = -0.000880798, cumulative = -0.0506203
smoothSolver:  Solving for epsilon, Initial residual = 0.0026953, Final residual = 7.39435e-05, No Iterations 2
bounding epsilon, min: -1.16728 max: 665.737 average: 19.4466
smoothSolver:  Solving for k, Initial residual = 0.00161404, Final residual = 6.79487e-05, No Iterations 2
ExecutionTime = 0.28 s  ClockTime = 0 s

Time = 82

smoothSolver:  Solving for Ux, Initial residual = 0.00304702, Final residual = 0.000288025, No Iterations 1
smoothSolver:  Solving for Uy, Initial residual = 0.00768505, Final residual = 0.000730624, No Iterations 1
GAMG:  Solving for p, Initial residual = 0.00348914, Final residual = 0.000127195, No Iterations 2
time step continuity errors : sum local = 0.00260923, global = -0.000629698, cumulative = -0.05125
smoothSolver:  Solving for epsilon, Initial residual = 0.0019907, Final residual = 3.77661e-05, No Iterations 2
bounding epsilon, min: -1.66139 max: 665.523 average: 19.4183
smoothSolver:  Solving for k, Initial residual = 0.00132183, Final residual = 5.05086e-05, No Iterations 2
ExecutionTime = 0.28 s  ClockTime = 0 s

Time = 83

smoothSolver:  Solving for Ux, Initial residual = 0.00266279, Final residual = 7.63369e-05, No Iterations 2
smoothSolver:  Solving for Uy, Initial residual = 0.00714904, Final residual = 0.00065545, No Iterations 1
GAMG:  Solving for p, Initial residual = 0.0030751, Final residual = 0.000138838, No Iterations 2
time step continuity errors : sum local = 0.00283983, global = -0.000180959, cumulative = -0.051431
smoothSolver:  Solving for epsilon, Initial residual = 0.00176877, Final residual = 4.75811e-05, No Iterations 2
bounding epsilon, min: -2.88946 max: 667.31 average: 19.3501
smoothSolver:  Solving for k, Initial residual = 0.00114178, Final residual = 4.80198e-05, No Iterations 2
ExecutionTime = 0.28 s  ClockTime = 0 s

Time = 84

smoothSolver:  Solving for Ux, Initial residual = 0.00229434, Final residual = 7.71506e-05, No Iterations 2
smoothSolver:  Solving for Uy, Initial residual = 0.00651355, Final residual = 0.000608663, No Iterations 1
GAMG:  Solving for p, Initial residual = 0.0026947, Final residual = 0.00013026, No Iterations 2
time step continuity errors : sum local = 0.00265972, global = 0.000148429, cumulative = -0.0512825
smoothSolver:  Solving for epsilon, Initial residual = 0.00178902, Final residual = 3.99138e-05, No Iterations 2
bounding epsilon, min: -4.23897 max: 668.357 average: 19.3327
smoothSolver:  Solving for k, Initial residual = 0.00101868, Final residual = 3.96063e-05, No Iterations 2
ExecutionTime = 0.29 s  ClockTime = 0 s

Time = 85

smoothSolver:  Solving for Ux, Initial residual = 0.0022356, Final residual = 8.56503e-05, No Iterations 2
smoothSolver:  Solving for Uy, Initial residual = 0.00586861, Final residual = 0.000173257, No Iterations 2
GAMG:  Solving for p, Initial residual = 0.00244624, Final residual = 0.000118097, No Iterations 2
time step continuity errors : sum local = 0.00240889, global = 0.000307086, cumulative = -0.0509755
smoothSolver:  Solving for epsilon, Initial residual = 0.00168024, Final residual = 3.69956e-05, No Iterations 2
bounding epsilon, min: -1.76279 max: 667.893 average: 19.2652
smoothSolver:  Solving for k, Initial residual = 0.000916898, Final residual = 3.17251e-05, No Iterations 2
ExecutionTime = 0.29 s  ClockTime = 0 s

Time = 86

smoothSolver:  Solving for Ux, Initial residual = 0.00214153, Final residual = 8.34094e-05, No Iterations 2
smoothSolver:  Solving for Uy, Initial residual = 0.00550709, Final residual = 0.000187845, No Iterations 2
GAMG:  Solving for p, Initial residual = 0.00219516, Final residual = 0.000109997, No Iterations 2
time step continuity errors : sum local = 0.0022382, global = 0.000307376, cumulative = -0.0506681
smoothSolver:  Solving for epsilon, Initial residual = 0.00162542, Final residual = 3.11107e-05, No Iterations 2
bounding epsilon, min: -3.7373 max: 667.452 average: 19.2746
smoothSolver:  Solving for k, Initial residual = 0.00086737, Final residual = 3.21601e-05, No Iterations 2
ExecutionTime = 0.29 s  ClockTime = 0 s

Time = 87

smoothSolver:  Solving for Ux, Initial residual = 0.0019831, Final residual = 7.31868e-05, No Iterations 2
smoothSolver:  Solving for Uy, Initial residual = 0.0049939, Final residual = 0.000224935, No Iterations 2
GAMG:  Solving for p, Initial residual = 0.00212794, Final residual = 0.000108321, No Iterations 2
time step continuity errors : sum local = 0.00220482, global = 0.000241776, cumulative = -0.0504263
smoothSolver:  Solving for epsilon, Initial residual = 0.00148251, Final residual = 3.21195e-05, No Iterations 2
bounding epsilon, min: -3.19459 max: 667.079 average: 19.2103
smoothSolver:  Solving for k, Initial residual = 0.000802463, Final residual = 3.05301e-05, No Iterations 2
ExecutionTime = 0.3 s  ClockTime = 0 s

Time = 88

smoothSolver:  Solving for Ux, Initial residual = 0.0018122, Final residual = 5.70667e-05, No Iterations 2
smoothSolver:  Solving for Uy, Initial residual = 0.00465692, Final residual = 0.000224767, No Iterations 2
GAMG:  Solving for p, Initial residual = 0.00198795, Final residual = 0.000102089, No Iterations 2
time step continuity errors : sum local = 0.00207504, global = 9.89808e-05, cumulative = -0.0503273
smoothSolver:  Solving for epsilon, Initial residual = 0.00151028, Final residual = 3.01853e-05, No Iterations 2
bounding epsilon, min: -1.32158 max: 666.144 average: 19.1844
smoothSolver:  Solving for k, Initial residual = 0.000760431, Final residual = 2.88342e-05, No Iterations 2
ExecutionTime = 0.3 s  ClockTime = 0 s

Time = 89

smoothSolver:  Solving for Ux, Initial residual = 0.00162844, Final residual = 5.24991e-05, No Iterations 2
smoothSolver:  Solving for Uy, Initial residual = 0.00440533, Final residual = 0.000215353, No Iterations 2
GAMG:  Solving for p, Initial residual = 0.00176791, Final residual = 8.92215e-05, No Iterations 2
time step continuity errors : sum local = 0.00180856, global = -7.61843e-05, cumulative = -0.0504035
smoothSolver:  Solving for epsilon, Initial residual = 0.00131486, Final residual = 2.97388e-05, No Iterations 2
bounding epsilon, min: -3.31216 max: 666.349 average: 19.1452
smoothSolver:  Solving for k, Initial residual = 0.000714011, Final residual = 2.69818e-05, No Iterations 2
ExecutionTime = 0.3 s  ClockTime = 0 s

Time = 90

smoothSolver:  Solving for Ux, Initial residual = 0.00148054, Final residual = 5.37888e-05, No Iterations 2
smoothSolver:  Solving for Uy, Initial residual = 0.00370963, Final residual = 0.000183404, No Iterations 2
GAMG:  Solving for p, Initial residual = 0.0016725, Final residual = 7.98452e-05, No Iterations 2
time step continuity errors : sum local = 0.00161776, global = -0.000216566, cumulative = -0.0506201
smoothSolver:  Solving for epsilon, Initial residual = 0.00150993, Final residual = 3.23367e-05, No Iterations 2
bounding epsilon, min: -1.71212 max: 666.69 average: 19.0923
smoothSolver:  Solving for k, Initial residual = 0.000699063, Final residual = 2.48803e-05, No Iterations 2
ExecutionTime = 0.31 s  ClockTime = 0 s

Time = 91

smoothSolver:  Solving for Ux, Initial residual = 0.00131287, Final residual = 5.19105e-05, No Iterations 2
smoothSolver:  Solving for Uy, Initial residual = 0.00368142, Final residual = 0.000144039, No Iterations 2
GAMG:  Solving for p, Initial residual = 0.00149629, Final residual = 7.31715e-05, No Iterations 2
time step continuity errors : sum local = 0.00147738, global = -0.000307313, cumulative = -0.0509274
smoothSolver:  Solving for epsilon, Initial residual = 0.00129735, Final residual = 2.69257e-05, No Iterations 2
bounding epsilon, min: -2.43047 max: 666.483 average: 19.0599
smoothSolver:  Solving for k, Initial residual = 0.000683897, Final residual = 2.58723e-05, No Iterations 2
ExecutionTime = 0.31 s  ClockTime = 0 s

Time = 92

smoothSolver:  Solving for Ux, Initial residual = 0.00123012, Final residual = 4.88724e-05, No Iterations 2
smoothSolver:  Solving for Uy, Initial residual = 0.00306952, Final residual = 0.000108213, No Iterations 2
GAMG:  Solving for p, Initial residual = 0.00146661, Final residual = 6.56748e-05, No Iterations 2
time step continuity errors : sum local = 0.00132504, global = -0.000342186, cumulative = -0.0512696
smoothSolver:  Solving for epsilon, Initial residual = 0.00147867, Final residual = 3.03771e-05, No Iterations 2
bounding epsilon, min: -1.95112 max: 665.631 average: 19.0341
smoothSolver:  Solving for k, Initial residual = 0.000676333, Final residual = 2.36587e-05, No Iterations 2
ExecutionTime = 0.31 s  ClockTime = 0 s

Time = 93

smoothSolver:  Solving for Ux, Initial residual = 0.00107676, Final residual = 4.49412e-05, No Iterations 2
smoothSolver:  Solving for Uy, Initial residual = 0.00307895, Final residual = 9.54398e-05, No Iterations 2
GAMG:  Solving for p, Initial residual = 0.00133216, Final residual = 5.46335e-05, No Iterations 2
time step continuity errors : sum local = 0.00109953, global = -0.00033103, cumulative = -0.0516006
smoothSolver:  Solving for epsilon, Initial residual = 0.00133078, Final residual = 0.000127048, No Iterations 1
bounding epsilon, min: -2.40612 max: 664.513 average: 18.9924
smoothSolver:  Solving for k, Initial residual = 0.000666985, Final residual = 2.4183e-05, No Iterations 2
ExecutionTime = 0.31 s  ClockTime = 0 s

Time = 94

smoothSolver:  Solving for Ux, Initial residual = 0.00102702, Final residual = 3.91065e-05, No Iterations 2
smoothSolver:  Solving for Uy, Initial residual = 0.00270373, Final residual = 9.76271e-05, No Iterations 2
GAMG:  Solving for p, Initial residual = 0.00124993, Final residual = 4.36859e-05, No Iterations 2
time step continuity errors : sum local = 0.000877823, global = -0.000309219, cumulative = -0.0519098
smoothSolver:  Solving for epsilon, Initial residual = 0.00153082, Final residual = 3.00335e-05, No Iterations 2
bounding epsilon, min: -2.51615 max: 663.074 average: 18.9661
smoothSolver:  Solving for k, Initial residual = 0.000623985, Final residual = 2.25446e-05, No Iterations 2
ExecutionTime = 0.32 s  ClockTime = 0 s

Time = 95

smoothSolver:  Solving for Ux, Initial residual = 0.000925544, Final residual = 3.22812e-05, No Iterations 2
smoothSolver:  Solving for Uy, Initial residual = 0.00277406, Final residual = 7.87926e-05, No Iterations 2
GAMG:  Solving for p, Initial residual = 0.00113911, Final residual = 3.46034e-05, No Iterations 2
time step continuity errors : sum local = 0.000693872, global = -0.000276413, cumulative = -0.0521862
smoothSolver:  Solving for epsilon, Initial residual = 0.00143123, Final residual = 2.82865e-05, No Iterations 2
bounding epsilon, min: -2.87232 max: 662.18 average: 18.9488
smoothSolver:  Solving for k, Initial residual = 0.00063111, Final residual = 2.07228e-05, No Iterations 2
ExecutionTime = 0.32 s  ClockTime = 0 s

Time = 96

smoothSolver:  Solving for Ux, Initial residual = 0.000900379, Final residual = 3.05857e-05, No Iterations 2
smoothSolver:  Solving for Uy, Initial residual = 0.0024367, Final residual = 7.81099e-05, No Iterations 2
GAMG:  Solving for p, Initial residual = 0.00112202, Final residual = 3.65095e-05, No Iterations 2
time step continuity errors : sum local = 0.000731315, global = -0.000236863, cumulative = -0.0524231
smoothSolver:  Solving for epsilon, Initial residual = 0.00141249, Final residual = 2.66012e-05, No Iterations 2
bounding epsilon, min: -1.74544 max: 662.061 average: 18.9514
smoothSolver:  Solving for k, Initial residual = 0.000598195, Final residual = 2.06626e-05, No Iterations 2
ExecutionTime = 0.32 s  ClockTime = 0 s

Time = 97

smoothSolver:  Solving for Ux, Initial residual = 0.000828007, Final residual = 2.58802e-05, No Iterations 2
smoothSolver:  Solving for Uy, Initial residual = 0.00238018, Final residual = 0.000213284, No Iterations 1
GAMG:  Solving for p, Initial residual = 0.00103496, Final residual = 3.65347e-05, No Iterations 2
time step continuity errors : sum local = 0.000731294, global = -0.000192985, cumulative = -0.0526161
smoothSolver:  Solving for epsilon, Initial residual = 0.0013986, Final residual = 2.82647e-05, No Iterations 2
bounding epsilon, min: -1.73527 max: 661.973 average: 18.9462
smoothSolver:  Solving for k, Initial residual = 0.00058142, Final residual = 1.94573e-05, No Iterations 2
ExecutionTime = 0.33 s  ClockTime = 0 s

Time = 98

smoothSolver:  Solving for Ux, Initial residual = 0.000731959, Final residual = 2.10327e-05, No Iterations 2
smoothSolver:  Solving for Uy, Initial residual = 0.00223034, Final residual = 0.000211684, No Iterations 1
GAMG:  Solving for p, Initial residual = 0.000908713, Final residual = 3.53436e-05, No Iterations 2
time step continuity errors : sum local = 0.000706744, global = -0.000144244, cumulative = -0.0527603
smoothSolver:  Solving for epsilon, Initial residual = 0.00127136, Final residual = 2.55123e-05, No Iterations 2
bounding epsilon, min: -3.12761 max: 661.503 average: 18.9553
smoothSolver:  Solving for k, Initial residual = 0.000557277, Final residual = 1.96746e-05, No Iterations 2
ExecutionTime = 0.33 s  ClockTime = 0 s

Time = 99

smoothSolver:  Solving for Ux, Initial residual = 0.000711699, Final residual = 1.89107e-05, No Iterations 2
smoothSolver:  Solving for Uy, Initial residual = 0.00186252, Final residual = 0.000183937, No Iterations 1
GAMG:  Solving for p, Initial residual = 0.000859736, Final residual = 3.23732e-05, No Iterations 2
time step continuity errors : sum local = 0.000647333, global = -0.000103678, cumulative = -0.052864
smoothSolver:  Solving for epsilon, Initial residual = 0.0013461, Final residual = 2.58349e-05, No Iterations 2
bounding epsilon, min: -1.74265 max: 660.941 average: 18.9203
smoothSolver:  Solving for k, Initial residual = 0.000537223, Final residual = 1.80874e-05, No Iterations 2
ExecutionTime = 0.33 s  ClockTime = 0 s

Time = 100

smoothSolver:  Solving for Ux, Initial residual = 0.000643041, Final residual = 1.92299e-05, No Iterations 2
smoothSolver:  Solving for Uy, Initial residual = 0.00193191, Final residual = 5.69649e-05, No Iterations 2
GAMG:  Solving for p, Initial residual = 0.000803836, Final residual = 2.65603e-05, No Iterations 2
time step continuity errors : sum local = 0.00053058, global = -7.38603e-05, cumulative = -0.0529379
smoothSolver:  Solving for epsilon, Initial residual = 0.00119601, Final residual = 0.000106962, No Iterations 1
bounding epsilon, min: -1.56866 max: 660.427 average: 18.9548
smoothSolver:  Solving for k, Initial residual = 0.000534816, Final residual = 1.88488e-05, No Iterations 2
ExecutionTime = 0.34 s  ClockTime = 0 s

Time = 101

smoothSolver:  Solving for Ux, Initial residual = 0.000676195, Final residual = 2.57721e-05, No Iterations 2
smoothSolver:  Solving for Uy, Initial residual = 0.00163245, Final residual = 5.76599e-05, No Iterations 2
GAMG:  Solving for p, Initial residual = 0.000772778, Final residual = 2.43655e-05, No Iterations 2
time step continuity errors : sum local = 0.000486891, global = -4.55232e-05, cumulative = -0.0529834
smoothSolver:  Solving for epsilon, Initial residual = 0.00123273, Final residual = 2.34095e-05, No Iterations 2
bounding epsilon, min: -3.41152 max: 659.936 average: 18.9314
smoothSolver:  Solving for k, Initial residual = 0.000514085, Final residual = 1.84355e-05, No Iterations 2
ExecutionTime = 0.34 s  ClockTime = 0 s

Time = 102

smoothSolver:  Solving for Ux, Initial residual = 0.000609948, Final residual = 3.06434e-05, No Iterations 2
smoothSolver:  Solving for Uy, Initial residual = 0.00163716, Final residual = 4.9287e-05, No Iterations 2
GAMG:  Solving for p, Initial residual = 0.000730389, Final residual = 2.33505e-05, No Iterations 2
time step continuity errors : sum local = 0.000466568, global = -1.9898e-05, cumulative = -0.0530033
smoothSolver:  Solving for epsilon, Initial residual = 0.00125228, Final residual = 0.000119557, No Iterations 1
bounding epsilon, min: -2.28628 max: 659.958 average: 18.895
smoothSolver:  Solving for k, Initial residual = 0.000508155, Final residual = 1.76219e-05, No Iterations 2
ExecutionTime = 0.34 s  ClockTime = 0 s

Time = 103

smoothSolver:  Solving for Ux, Initial residual = 0.000626517, Final residual = 3.20945e-05, No Iterations 2
smoothSolver:  Solving for Uy, Initial residual = 0.0017292, Final residual = 6.16765e-05, No Iterations 2
GAMG:  Solving for p, Initial residual = 0.000726803, Final residual = 2.71743e-05, No Iterations 2
time step continuity errors : sum local = 0.000542671, global = 1.18665e-05, cumulative = -0.0529914
smoothSolver:  Solving for epsilon, Initial residual = 0.00128277, Final residual = 2.97075e-05, No Iterations 2
bounding epsilon, min: -1.74875 max: 660.188 average: 18.8747
smoothSolver:  Solving for k, Initial residual = 0.000501824, Final residual = 1.77329e-05, No Iterations 2
ExecutionTime = 0.35 s  ClockTime = 0 s

Time = 104

smoothSolver:  Solving for Ux, Initial residual = 0.000576222, Final residual = 2.7697e-05, No Iterations 2
smoothSolver:  Solving for Uy, Initial residual = 0.00180995, Final residual = 5.32189e-05, No Iterations 2
GAMG:  Solving for p, Initial residual = 0.000645626, Final residual = 2.49168e-05, No Iterations 2
time step continuity errors : sum local = 0.000497709, global = 4.46846e-05, cumulative = -0.0529467
smoothSolver:  Solving for epsilon, Initial residual = 0.00130259, Final residual = 2.76691e-05, No Iterations 2
bounding epsilon, min: -2.46785 max: 660.223 average: 18.856
smoothSolver:  Solving for k, Initial residual = 0.000515892, Final residual = 1.76563e-05, No Iterations 2
ExecutionTime = 0.35 s  ClockTime = 0 s

Time = 105

smoothSolver:  Solving for Ux, Initial residual = 0.000531486, Final residual = 2.20127e-05, No Iterations 2
smoothSolver:  Solving for Uy, Initial residual = 0.00148504, Final residual = 5.58246e-05, No Iterations 2
GAMG:  Solving for p, Initial residual = 0.000608673, Final residual = 2.28877e-05, No Iterations 2
time step continuity errors : sum local = 0.000457161, global = 7.01514e-05, cumulative = -0.0528766
smoothSolver:  Solving for epsilon, Initial residual = 0.00122552, Final residual = 2.66666e-05, No Iterations 2
bounding epsilon, min: -2.01715 max: 660.03 average: 18.8368
smoothSolver:  Solving for k, Initial residual = 0.000494666, Final residual = 1.91712e-05, No Iterations 2
ExecutionTime = 0.35 s  ClockTime = 0 s

Time = 106

smoothSolver:  Solving for Ux, Initial residual = 0.000472837, Final residual = 2.15349e-05, No Iterations 2
smoothSolver:  Solving for Uy, Initial residual = 0.00193378, Final residual = 7.11783e-05, No Iterations 2
GAMG:  Solving for p, Initial residual = 0.000586983, Final residual = 1.96378e-05, No Iterations 2
time step continuity errors : sum local = 0.000392129, global = 8.07237e-05, cumulative = -0.0527959
smoothSolver:  Solving for epsilon, Initial residual = 0.00125189, Final residual = 2.3489e-05, No Iterations 2
bounding epsilon, min: -1.8504 max: 660.069 average: 18.8002
smoothSolver:  Solving for k, Initial residual = 0.000549488, Final residual = 1.83397e-05, No Iterations 2
ExecutionTime = 0.35 s  ClockTime = 0 s

Time = 107

smoothSolver:  Solving for Ux, Initial residual = 0.000492914, Final residual = 2.4536e-05, No Iterations 2
smoothSolver:  Solving for Uy, Initial residual = 0.00153278, Final residual = 6.67663e-05, No Iterations 2
GAMG:  Solving for p, Initial residual = 0.000550237, Final residual = 2.33209e-05, No Iterations 2
time step continuity errors : sum local = 0.000465716, global = 7.88847e-05, cumulative = -0.052717
smoothSolver:  Solving for epsilon, Initial residual = 0.00108235, Final residual = 0.000107463, No Iterations 1
[...]
time step continuity errors : sum local = 0.000410809, global = 5.21175e-05, cumulative = -0.0496972
smoothSolver:  Solving for epsilon, Initial residual = 0.00127753, Final residual = 0.000124581, No Iterations 1
bounding epsilon, min: -1.10622 max: 670.659 average: 19.2926
smoothSolver:  Solving for k, Initial residual = 0.000514938, Final residual = 1.30749e-05, No Iterations 2
ExecutionTime = 6.87 s  ClockTime = 7 s

Time = 1975

smoothSolver:  Solving for Ux, Initial residual = 0.000347178, Final residual = 1.0719e-05, No Iterations 2
smoothSolver:  Solving for Uy, Initial residual = 0.0012281, Final residual = 3.92338e-05, No Iterations 2
GAMG:  Solving for p, Initial residual = 0.000355156, Final residual = 1.47782e-05, No Iterations 2
time step continuity errors : sum local = 0.000295924, global = 7.36687e-05, cumulative = -0.0496235
smoothSolver:  Solving for epsilon, Initial residual = 0.00136824, Final residual = 3.06468e-05, No Iterations 2
bounding epsilon, min: -3.17156 max: 670.633 average: 19.234
smoothSolver:  Solving for k, Initial residual = 0.000481251, Final residual = 1.75518e-05, No Iterations 2
ExecutionTime = 6.87 s  ClockTime = 7 s

Time = 1976

smoothSolver:  Solving for Ux, Initial residual = 0.000286832, Final residual = 1.13298e-05, No Iterations 2
smoothSolver:  Solving for Uy, Initial residual = 0.00103988, Final residual = 3.02857e-05, No Iterations 2
GAMG:  Solving for p, Initial residual = 0.000319866, Final residual = 1.32136e-05, No Iterations 2
time step continuity errors : sum local = 0.000264583, global = 9.0276e-05, cumulative = -0.0495333
smoothSolver:  Solving for epsilon, Initial residual = 0.00136144, Final residual = 0.000134327, No Iterations 1
bounding epsilon, min: -2.24221 max: 670.497 average: 19.1873
smoothSolver:  Solving for k, Initial residual = 0.000506924, Final residual = 1.47116e-05, No Iterations 2
ExecutionTime = 6.88 s  ClockTime = 7 s

Time = 1977

smoothSolver:  Solving for Ux, Initial residual = 0.000287473, Final residual = 1.23899e-05, No Iterations 2
smoothSolver:  Solving for Uy, Initial residual = 0.000909975, Final residual = 2.68335e-05, No Iterations 2
GAMG:  Solving for p, Initial residual = 0.000294352, Final residual = 1.41047e-05, No Iterations 2
time step continuity errors : sum local = 0.00028246, global = 8.88597e-05, cumulative = -0.0494444
smoothSolver:  Solving for epsilon, Initial residual = 0.00147404, Final residual = 2.99311e-05, No Iterations 2
bounding epsilon, min: -2.65004 max: 670.264 average: 19.1576
smoothSolver:  Solving for k, Initial residual = 0.000493251, Final residual = 1.67441e-05, No Iterations 2
ExecutionTime = 6.88 s  ClockTime = 7 s

Time = 1978

smoothSolver:  Solving for Ux, Initial residual = 0.000383232, Final residual = 1.97741e-05, No Iterations 2
smoothSolver:  Solving for Uy, Initial residual = 0.00173807, Final residual = 0.000109509, No Iterations 2
GAMG:  Solving for p, Initial residual = 0.000364982, Final residual = 2.66865e-05, No Iterations 2
time step continuity errors : sum local = 0.000533613, global = 9.29636e-05, cumulative = -0.0493514
smoothSolver:  Solving for epsilon, Initial residual = 0.00134252, Final residual = 2.50727e-05, No Iterations 2
bounding epsilon, min: -2.88213 max: 669.95 average: 19.1343
smoothSolver:  Solving for k, Initial residual = 0.000546302, Final residual = 1.48757e-05, No Iterations 2
ExecutionTime = 6.88 s  ClockTime = 7 s

Time = 1979

smoothSolver:  Solving for Ux, Initial residual = 0.000378375, Final residual = 2.27668e-05, No Iterations 2
smoothSolver:  Solving for Uy, Initial residual = 0.00157456, Final residual = 5.9972e-05, No Iterations 2
GAMG:  Solving for p, Initial residual = 0.000291888, Final residual = 1.91816e-05, No Iterations 2
time step continuity errors : sum local = 0.000384013, global = 7.18568e-05, cumulative = -0.0492796
smoothSolver:  Solving for epsilon, Initial residual = 0.00121564, Final residual = 2.26623e-05, No Iterations 2
bounding epsilon, min: -1.98592 max: 669.713 average: 19.1234
smoothSolver:  Solving for k, Initial residual = 0.000497584, Final residual = 1.90691e-05, No Iterations 2
ExecutionTime = 6.89 s  ClockTime = 7 s

Time = 1980

smoothSolver:  Solving for Ux, Initial residual = 0.000369374, Final residual = 2.09408e-05, No Iterations 2
smoothSolver:  Solving for Uy, Initial residual = 0.00123269, Final residual = 4.9e-05, No Iterations 2
GAMG:  Solving for p, Initial residual = 0.000325906, Final residual = 2.00602e-05, No Iterations 2
time step continuity errors : sum local = 0.000401657, global = 5.01241e-05, cumulative = -0.0492295
smoothSolver:  Solving for epsilon, Initial residual = 0.0013637, Final residual = 0.000124368, No Iterations 1
bounding epsilon, min: -1.9388 max: 669.559 average: 19.1056
smoothSolver:  Solving for k, Initial residual = 0.000503146, Final residual = 1.57946e-05, No Iterations 2
ExecutionTime = 6.89 s  ClockTime = 7 s

Time = 1981

smoothSolver:  Solving for Ux, Initial residual = 0.000333913, Final residual = 1.77384e-05, No Iterations 2
smoothSolver:  Solving for Uy, Initial residual = 0.00120268, Final residual = 5.01147e-05, No Iterations 2
GAMG:  Solving for p, Initial residual = 0.00028346, Final residual = 1.533e-05, No Iterations 2
time step continuity errors : sum local = 0.000306682, global = 1.64459e-05, cumulative = -0.049213
smoothSolver:  Solving for epsilon, Initial residual = 0.00131011, Final residual = 3.1279e-05, No Iterations 2
bounding epsilon, min: -3.29894 max: 669.431 average: 19.1721
smoothSolver:  Solving for k, Initial residual = 0.000475375, Final residual = 1.66358e-05, No Iterations 2
ExecutionTime = 6.89 s  ClockTime = 7 s

Time = 1982

smoothSolver:  Solving for Ux, Initial residual = 0.000317819, Final residual = 1.61196e-05, No Iterations 2
smoothSolver:  Solving for Uy, Initial residual = 0.00108843, Final residual = 4.42976e-05, No Iterations 2
GAMG:  Solving for p, Initial residual = 0.000283889, Final residual = 1.80825e-05, No Iterations 2
time step continuity errors : sum local = 0.000362101, global = -1.23624e-05, cumulative = -0.0492254
smoothSolver:  Solving for epsilon, Initial residual = 0.00157192, Final residual = 2.95613e-05, No Iterations 2
bounding epsilon, min: -2.06368 max: 669.323 average: 19.1256
smoothSolver:  Solving for k, Initial residual = 0.000478503, Final residual = 1.25726e-05, No Iterations 2
ExecutionTime = 6.9 s  ClockTime = 7 s

Time = 1983

smoothSolver:  Solving for Ux, Initial residual = 0.000507968, Final residual = 2.78945e-05, No Iterations 2
smoothSolver:  Solving for Uy, Initial residual = 0.00243773, Final residual = 0.000218359, No Iterations 2
GAMG:  Solving for p, Initial residual = 0.000460805, Final residual = 3.74149e-05, No Iterations 2
time step continuity errors : sum local = 0.000747829, global = -3.93261e-05, cumulative = -0.0492647
smoothSolver:  Solving for epsilon, Initial residual = 0.00133092, Final residual = 2.63674e-05, No Iterations 2
bounding epsilon, min: -2.43266 max: 669.296 average: 19.1352
smoothSolver:  Solving for k, Initial residual = 0.000528117, Final residual = 1.66979e-05, No Iterations 2
ExecutionTime = 6.9 s  ClockTime = 7 s

Time = 1984

smoothSolver:  Solving for Ux, Initial residual = 0.000471188, Final residual = 2.6304e-05, No Iterations 2
smoothSolver:  Solving for Uy, Initial residual = 0.00215772, Final residual = 9.70809e-05, No Iterations 2
GAMG:  Solving for p, Initial residual = 0.000370776, Final residual = 2.20507e-05, No Iterations 2
time step continuity errors : sum local = 0.000441657, global = -6.59406e-05, cumulative = -0.0493306
smoothSolver:  Solving for epsilon, Initial residual = 0.0014284, Final residual = 0.000136591, No Iterations 1
bounding epsilon, min: -2.26171 max: 669.299 average: 19.0856
smoothSolver:  Solving for k, Initial residual = 0.000524457, Final residual = 1.4068e-05, No Iterations 2
ExecutionTime = 6.91 s  ClockTime = 7 s

Time = 1985

smoothSolver:  Solving for Ux, Initial residual = 0.00174284, Final residual = 0.000114394, No Iterations 2
smoothSolver:  Solving for Uy, Initial residual = 0.00941438, Final residual = 0.000741592, No Iterations 3
GAMG:  Solving for p, Initial residual = 0.00100482, Final residual = 9.90216e-05, No Iterations 2
time step continuity errors : sum local = 0.0019738, global = -7.46115e-05, cumulative = -0.0494052
smoothSolver:  Solving for epsilon, Initial residual = 0.0019983, Final residual = 8.50488e-05, No Iterations 2
bounding epsilon, min: -2.3617 max: 669.4 average: 19.1495
smoothSolver:  Solving for k, Initial residual = 0.00062361, Final residual = 1.66002e-05, No Iterations 2
ExecutionTime = 6.91 s  ClockTime = 7 s

Time = 1986

smoothSolver:  Solving for Ux, Initial residual = 0.00125266, Final residual = 9.3327e-05, No Iterations 2
smoothSolver:  Solving for Uy, Initial residual = 0.00499195, Final residual = 0.000355576, No Iterations 2
GAMG:  Solving for p, Initial residual = 0.000820784, Final residual = 6.96212e-05, No Iterations 2
time step continuity errors : sum local = 0.00139473, global = -5.82883e-05, cumulative = -0.0494635
smoothSolver:  Solving for epsilon, Initial residual = 0.00179533, Final residual = 3.55771e-05, No Iterations 2
bounding epsilon, min: -1.78325 max: 669.565 average: 19.1429
smoothSolver:  Solving for k, Initial residual = 0.000549337, Final residual = 1.41759e-05, No Iterations 2
ExecutionTime = 6.91 s  ClockTime = 7 s

Time = 1987

smoothSolver:  Solving for Ux, Initial residual = 0.00101574, Final residual = 8.12614e-05, No Iterations 2
smoothSolver:  Solving for Uy, Initial residual = 0.00373082, Final residual = 0.000198866, No Iterations 2
GAMG:  Solving for p, Initial residual = 0.000787972, Final residual = 6.58463e-05, No Iterations 2
time step continuity errors : sum local = 0.00131867, global = -4.0628e-05, cumulative = -0.0495042
smoothSolver:  Solving for epsilon, Initial residual = 0.00137508, Final residual = 3.63924e-05, No Iterations 2
smoothSolver:  Solving for k, Initial residual = 0.000566773, Final residual = 1.83712e-05, No Iterations 2
ExecutionTime = 6.92 s  ClockTime = 7 s

Time = 1988

smoothSolver:  Solving for Ux, Initial residual = 0.00079845, Final residual = 7.03038e-05, No Iterations 2
smoothSolver:  Solving for Uy, Initial residual = 0.00311704, Final residual = 0.000157787, No Iterations 2
GAMG:  Solving for p, Initial residual = 0.000568735, Final residual = 4.21735e-05, No Iterations 2
time step continuity errors : sum local = 0.000844629, global = -3.90667e-05, cumulative = -0.0495432
smoothSolver:  Solving for epsilon, Initial residual = 0.00131988, Final residual = 0.000122324, No Iterations 1
bounding epsilon, min: -0.32889 max: 669.794 average: 19.1157
smoothSolver:  Solving for k, Initial residual = 0.000579157, Final residual = 1.6803e-05, No Iterations 2
ExecutionTime = 6.92 s  ClockTime = 7 s

Time = 1989

smoothSolver:  Solving for Ux, Initial residual = 0.0222782, Final residual = 0.00202322, No Iterations 1
smoothSolver:  Solving for Uy, Initial residual = 0.102716, Final residual = 0.00428019, No Iterations 2
GAMG:  Solving for p, Initial residual = 0.00202913, Final residual = 0.000158108, No Iterations 2
time step continuity errors : sum local = 0.00315053, global = -3.20816e-05, cumulative = -0.0495753
smoothSolver:  Solving for epsilon, Initial residual = 0.0117925, Final residual = 0.000898515, No Iterations 2
bounding epsilon, min: -3.2637 max: 670.122 average: 19.2087
smoothSolver:  Solving for k, Initial residual = 0.00280455, Final residual = 0.000214077, No Iterations 6
ExecutionTime = 6.92 s  ClockTime = 7 s

Time = 1990

smoothSolver:  Solving for Ux, Initial residual = 0.00321484, Final residual = 0.000256825, No Iterations 1
smoothSolver:  Solving for Uy, Initial residual = 0.0100771, Final residual = 0.000753812, No Iterations 1
GAMG:  Solving for p, Initial residual = 0.0020384, Final residual = 0.000128546, No Iterations 2
time step continuity errors : sum local = 0.00258947, global = 2.0531e-05, cumulative = -0.0495548
smoothSolver:  Solving for epsilon, Initial residual = 0.00217643, Final residual = 0.000198841, No Iterations 1
bounding epsilon, min: -1.54473 max: 669.77 average: 19.3449
smoothSolver:  Solving for k, Initial residual = 0.00088806, Final residual = 2.14243e-05, No Iterations 2
ExecutionTime = 6.92 s  ClockTime = 7 s

Time = 1991

smoothSolver:  Solving for Ux, Initial residual = 0.00232181, Final residual = 0.000116895, No Iterations 2
smoothSolver:  Solving for Uy, Initial residual = 0.00689228, Final residual = 0.000212927, No Iterations 2
GAMG:  Solving for p, Initial residual = 0.00195205, Final residual = 0.00013334, No Iterations 2
time step continuity errors : sum local = 0.00269202, global = 1.049e-06, cumulative = -0.0495537
smoothSolver:  Solving for epsilon, Initial residual = 0.00203968, Final residual = 5.54786e-05, No Iterations 2
bounding epsilon, min: -2.24892 max: 671.69 average: 19.2867
smoothSolver:  Solving for k, Initial residual = 0.000739957, Final residual = 2.2272e-05, No Iterations 2
ExecutionTime = 6.93 s  ClockTime = 7 s

Time = 1992

smoothSolver:  Solving for Ux, Initial residual = 0.00191634, Final residual = 0.000123079, No Iterations 2
smoothSolver:  Solving for Uy, Initial residual = 0.00658299, Final residual = 0.000199975, No Iterations 2
GAMG:  Solving for p, Initial residual = 0.00169888, Final residual = 0.000120531, No Iterations 2
time step continuity errors : sum local = 0.00242338, global = 5.77614e-05, cumulative = -0.049496
smoothSolver:  Solving for epsilon, Initial residual = 0.00188379, Final residual = 3.61472e-05, No Iterations 2
bounding epsilon, min: -1.27534 max: 675.058 average: 19.2971
smoothSolver:  Solving for k, Initial residual = 0.000733263, Final residual = 2.09236e-05, No Iterations 2
ExecutionTime = 6.93 s  ClockTime = 7 s

Time = 1993

smoothSolver:  Solving for Ux, Initial residual = 0.00173169, Final residual = 9.84706e-05, No Iterations 2
smoothSolver:  Solving for Uy, Initial residual = 0.00477924, Final residual = 0.000169375, No Iterations 2
GAMG:  Solving for p, Initial residual = 0.00158809, Final residual = 9.87802e-05, No Iterations 2
time step continuity errors : sum local = 0.00198365, global = 0.000221381, cumulative = -0.0492746
smoothSolver:  Solving for epsilon, Initial residual = 0.00151287, Final residual = 3.00956e-05, No Iterations 2
bounding epsilon, min: -3.82965 max: 676.636 average: 19.3062
smoothSolver:  Solving for k, Initial residual = 0.000677989, Final residual = 2.17001e-05, No Iterations 2
ExecutionTime = 6.93 s  ClockTime = 7 s

Time = 1994

smoothSolver:  Solving for Ux, Initial residual = 0.00152563, Final residual = 7.46648e-05, No Iterations 2
smoothSolver:  Solving for Uy, Initial residual = 0.00404087, Final residual = 0.000169372, No Iterations 2
GAMG:  Solving for p, Initial residual = 0.00147985, Final residual = 7.6532e-05, No Iterations 2
time step continuity errors : sum local = 0.00153553, global = 0.000368399, cumulative = -0.0489062
smoothSolver:  Solving for epsilon, Initial residual = 0.00157441, Final residual = 2.60986e-05, No Iterations 2
bounding epsilon, min: -1.11562 max: 676.703 average: 19.3171
smoothSolver:  Solving for k, Initial residual = 0.000671507, Final residual = 1.99217e-05, No Iterations 2
ExecutionTime = 6.94 s  ClockTime = 7 s

Time = 1995

smoothSolver:  Solving for Ux, Initial residual = 0.00137746, Final residual = 7.10854e-05, No Iterations 2
smoothSolver:  Solving for Uy, Initial residual = 0.00334205, Final residual = 0.000141439, No Iterations 2
GAMG:  Solving for p, Initial residual = 0.00128101, Final residual = 6.38898e-05, No Iterations 2
time step continuity errors : sum local = 0.00128217, global = 0.000384307, cumulative = -0.0485219
smoothSolver:  Solving for epsilon, Initial residual = 0.00132873, Final residual = 2.94201e-05, No Iterations 2
bounding epsilon, min: -3.01989 max: 676.146 average: 19.3397
smoothSolver:  Solving for k, Initial residual = 0.000643817, Final residual = 2.12922e-05, No Iterations 2
ExecutionTime = 6.94 s  ClockTime = 7 s

Time = 1996

smoothSolver:  Solving for Ux, Initial residual = 0.00129195, Final residual = 7.45668e-05, No Iterations 2
smoothSolver:  Solving for Uy, Initial residual = 0.00311914, Final residual = 0.00013443, No Iterations 2
GAMG:  Solving for p, Initial residual = 0.0011828, Final residual = 6.58345e-05, No Iterations 2
time step continuity errors : sum local = 0.00132237, global = 0.000316169, cumulative = -0.0482057
smoothSolver:  Solving for epsilon, Initial residual = 0.001469, Final residual = 2.73589e-05, No Iterations 2
bounding epsilon, min: -1.87341 max: 676.703 average: 19.3174
smoothSolver:  Solving for k, Initial residual = 0.000625631, Final residual = 1.86361e-05, No Iterations 2
ExecutionTime = 6.94 s  ClockTime = 7 s

Time = 1997

smoothSolver:  Solving for Ux, Initial residual = 0.00126839, Final residual = 8.2408e-05, No Iterations 2
smoothSolver:  Solving for Uy, Initial residual = 0.00280422, Final residual = 0.000128816, No Iterations 2
GAMG:  Solving for p, Initial residual = 0.00111848, Final residual = 7.36065e-05, No Iterations 2
time step continuity errors : sum local = 0.00148004, global = 0.000227172, cumulative = -0.0479785
smoothSolver:  Solving for epsilon, Initial residual = 0.00124971, Final residual = 2.69847e-05, No Iterations 2
bounding epsilon, min: -2.83025 max: 677.719 average: 19.3019
smoothSolver:  Solving for k, Initial residual = 0.000618578, Final residual = 2.15017e-05, No Iterations 2
ExecutionTime = 6.95 s  ClockTime = 7 s

Time = 1998

smoothSolver:  Solving for Ux, Initial residual = 0.001224, Final residual = 8.91125e-05, No Iterations 2
smoothSolver:  Solving for Uy, Initial residual = 0.00513373, Final residual = 0.000194888, No Iterations 2
GAMG:  Solving for p, Initial residual = 0.00112317, Final residual = 7.95107e-05, No Iterations 2
time step continuity errors : sum local = 0.00159419, global = 0.000135146, cumulative = -0.0478434
smoothSolver:  Solving for epsilon, Initial residual = 0.00154885, Final residual = 2.82178e-05, No Iterations 2
bounding epsilon, min: -1.80027 max: 678.638 average: 19.3493
smoothSolver:  Solving for k, Initial residual = 0.000631839, Final residual = 2.07778e-05, No Iterations 2
ExecutionTime = 6.95 s  ClockTime = 7 s

Time = 1999

smoothSolver:  Solving for Ux, Initial residual = 0.00136178, Final residual = 7.78965e-05, No Iterations 2
smoothSolver:  Solving for Uy, Initial residual = 0.00350293, Final residual = 0.000159347, No Iterations 2
GAMG:  Solving for p, Initial residual = 0.00118759, Final residual = 7.48335e-05, No Iterations 2
time step continuity errors : sum local = 0.00150531, global = -1.5457e-05, cumulative = -0.0478589
smoothSolver:  Solving for epsilon, Initial residual = 0.00150734, Final residual = 3.02768e-05, No Iterations 2
bounding epsilon, min: -1.18904 max: 678.587 average: 19.417
smoothSolver:  Solving for k, Initial residual = 0.000642446, Final residual = 2.29113e-05, No Iterations 2
ExecutionTime = 6.95 s  ClockTime = 7 s

Time = 2000

smoothSolver:  Solving for Ux, Initial residual = 0.00107321, Final residual = 6.16284e-05, No Iterations 2
smoothSolver:  Solving for Uy, Initial residual = 0.00282147, Final residual = 0.000163197, No Iterations 2
GAMG:  Solving for p, Initial residual = 0.000937443, Final residual = 6.38171e-05, No Iterations 2
time step continuity errors : sum local = 0.00128256, global = -0.000133896, cumulative = -0.0479927
smoothSolver:  Solving for epsilon, Initial residual = 0.0014299, Final residual = 2.95459e-05, No Iterations 2
bounding epsilon, min: -2.66344 max: 678.199 average: 19.4745
smoothSolver:  Solving for k, Initial residual = 0.000620885, Final residual = 1.87355e-05, No Iterations 2
ExecutionTime = 6.96 s  ClockTime = 7 s

End

Killing PID 22307
